/*--------------------------------*- C++ -*----------------------------------*\
  =========                 |
  \\      /  F ield         | OpenFOAM: The Open Source CFD Toolbox
   \\    /   O peration     | Website:  https://openfoam.org
    \\  /    A nd           | Version:  7
     \\/     M anipulation  |
\*---------------------------------------------------------------------------*/
FoamFile
{
    version     2.0;
    format      ascii;
    class       featureEdgeMesh;
    location    "constant/triSurface";
    object      ruotapost.eMesh;
}
// * * * * * * * * * * * * * * * * * * * * * * * * * * * * * * * * * * * * * //


// points:

1417
(
(2.857789993 0.7990940213 0.2464829981)
(2.871030092 0.7990940213 0.2872309983)
(2.771759987 0.7990940213 0.2151080072)
(2.814610004 0.7990940213 0.2151080072)
(2.715339899 0.7990940213 0.2872309983)
(2.728579998 0.7990940213 0.2464829981)
(2.766499996 0.7990940213 0.363180995)
(2.731829882 0.7990940213 0.3379969895)
(2.85454011 0.7990940213 0.3379969895)
(2.819869995 0.7990940213 0.363180995)
(3.571269989 0.706058979 0.2738049924)
(3.571269989 0.7060610056 0.2738089859)
(2.792399883 0.5508149862 1.231050014)
(2.792069912 0.5526390076 1.231950045)
(2.741470098 0.8601800203 0.07995170355)
(2.650219917 0.7753059864 0.4075619876)
(2.936150074 0.7753059864 0.4075619876)
(3.00229001 0.8600869775 0.2350900024)
(3.009279966 0.8601850271 0.2799859941)
(3.000260115 0.8600640297 0.2279759943)
(2.970700026 0.7722190022 0.23759)
(2.967190027 0.772300005 0.2268960029)
(2.973890066 0.8601850271 0.171085)
(2.947700024 0.7753580213 0.1880950034)
(2.949170113 0.7753059864 0.1903609931)
(2.96220994 0.7736740112 0.2145610005)
(2.978090048 0.7753580213 0.2816199958)
(2.977760077 0.7752329707 0.2761839926)
(2.805510044 0.8600869775 0.07415740192)
(2.826580048 0.8601509929 0.07631479949)
(2.850440025 0.8601850271 0.08138860017)
(2.783179998 0.8600779772 0.07404919714)
(2.788180113 0.8600640297 0.07389540225)
(2.798190117 0.8600640297 0.07389540225)
(2.737780094 0.8601840138 0.08089239895)
(2.735929966 0.8601850271 0.08138860017)
(2.744019985 0.7753580213 0.1115569994)
(2.74661994 0.7753059864 0.1108589992)
(2.831739902 0.7750260234 0.1089660004)
(2.591929913 0.860089004 0.2110159993)
(2.612479925 0.8601850271 0.171085)
(2.58920002 0.8600640297 0.2184630036)
(2.619460106 0.7723630071 0.2261389941)
(2.615099907 0.7723630071 0.2395489961)
(2.577090025 0.8601850271 0.2799859941)
(2.608279943 0.7753580213 0.2816199958)
(2.657010078 0.8600839972 0.4579139948)
(2.642570019 0.8601440191 0.4452010095)
(2.624249935 0.8601850271 0.4251179993)
(2.670209885 0.8600640297 0.467772007)
(2.666130066 0.8600590229 0.4648739994)
(2.662120104 0.8600640297 0.4618929923)
(2.716880083 0.8601850271 0.4924220145)
(2.728080034 0.7753580213 0.4632639885)
(2.72555995 0.7753059864 0.4622960091)
(2.648519993 0.7753580213 0.4054630101)
(2.651979923 0.775232017 0.4096759856)
(2.655590057 0.7750250101 0.4138079882)
(2.909579992 0.860089004 0.4721930027)
(2.879319906 0.8601750135 0.4884220064)
(2.869479895 0.8601850271 0.4924220145)
(2.916160107 0.8600640297 0.4677709937)
(2.897890091 0.7722190022 0.4426349998)
(2.933880091 0.8601049781 0.4541809857)
(2.962120056 0.8601850271 0.4251179993)
(2.937849998 0.7753580213 0.4054630101)
(2.933500051 0.7751880288 0.4107109904)
(2.930779934 0.7750250101 0.4138079882)
(2.86841011 0.7750250101 0.4591169953)
(2.77177 0.7986829877 0.3622640073)
(2.818969965 0.7990940213 0.3608320057)
(2.85258007 0.7990940213 0.3364140093)
(2.733789921 0.7990940213 0.3364140093)
(2.767400026 0.7990940213 0.3608320057)
(2.730690002 0.7990940213 0.247852996)
(2.71784997 0.7990940213 0.2873629928)
(2.813960075 0.7990940213 0.2175379992)
(2.772409916 0.7990940213 0.2175379992)
(2.868119955 0.830869019 0.2873840034)
(2.868520021 0.7990940213 0.2873629928)
(2.855679989 0.7990940213 0.247852996)
(2.792380095 0.5507460237 1.23100996)
(2.792380095 0.5508069992 1.231060028)
(2.792380095 0.5507749915 1.231029987)
(2.792380095 0.5507439971 1.23100996)
(2.792370081 0.5508059859 1.231060028)
(2.792380095 0.5507280231 1.230999947)
(2.792380095 0.5507289767 1.230999947)
(2.792399883 0.5508180261 1.231050014)
(2.792360067 0.5510590076 1.231230021)
(2.792289972 0.5515729785 1.231539965)
(2.792490005 0.5508540273 1.23100996)
(3.001980066 0.860082984 0.2339400053)
(3.001660109 0.8600779772 0.2327779979)
(3.000430107 0.861002028 0.2804499865)
(2.989690065 0.8617429733 0.2810130119)
(2.979330063 0.8621659875 0.2815560102)
(2.968899965 0.8623020053 0.2821019888)
(2.958260059 0.8621420264 0.2826589942)
(2.94814992 0.8617110252 0.2831889987)
(2.937740088 0.8609799743 0.283735007)
(2.927330017 0.859957993 0.2842809856)
(2.917030096 0.8586580157 0.2848210037)
(2.907180071 0.8571419716 0.2853370011)
(2.896290064 0.8551520109 0.2859070003)
(2.886820078 0.8531489968 0.2864040136)
(2.876569986 0.8506940007 0.2869409919)
(2.866559982 0.8479970098 0.2874650061)
(2.856839895 0.8450919986 0.2879750133)
(2.846800089 0.841786027 0.2885009944)
(2.837140083 0.838307023 0.2890070081)
(2.826960087 0.8343110085 0.2895410061)
(2.868930101 0.7990940213 0.2759029865)
(2.865839958 0.7990940213 0.2663919926)
(2.862750053 0.7990940213 0.2568820119)
(2.96645999 0.861002028 0.1759130061)
(2.957439899 0.8617429733 0.1817699969)
(2.948740005 0.8621659875 0.1874199957)
(2.939990044 0.8623020053 0.1931039989)
(2.931050062 0.8621420264 0.1989070028)
(2.922559977 0.8617110252 0.2044219971)
(2.913810015 0.8609799743 0.2101009935)
(2.905070066 0.859957993 0.2157790065)
(2.896420002 0.8586580157 0.2213969976)
(2.888149977 0.8571419716 0.2267680019)
(2.878999949 0.8551520109 0.2327069938)
(2.871049881 0.8531489968 0.2378740013)
(2.862449884 0.8506940007 0.2434609979)
(2.854039907 0.8479970098 0.2489199936)
(2.845880032 0.8450919986 0.2542209923)
(2.837440014 0.841786027 0.259698987)
(2.829329967 0.838307023 0.264966011)
(2.820780039 0.8343110085 0.2705200016)
(2.862869978 0.80794698 0.2431840003)
(2.868910074 0.8150990009 0.2392619997)
(2.876130104 0.8209390044 0.2345750034)
(2.883960009 0.8249980211 0.2294909954)
(2.892519951 0.827319026 0.2239309996)
(2.901750088 0.8276420236 0.2179349959)
(2.910619974 0.8258559704 0.2121739984)
(2.918600082 0.8223189712 0.2069929987)
(2.926069975 0.8169569969 0.2021400034)
(2.932450056 0.8101850152 0.1979999989)
(2.937809944 0.8018919826 0.194520995)
(2.941920042 0.7920330167 0.1918459982)
(2.945080042 0.7825719714 0.189794004)
(2.860610008 0.7990940213 0.2515200078)
(2.877079964 0.80794698 0.286913991)
(2.884269953 0.8150990009 0.2865369916)
(2.892869949 0.8209390044 0.2860870063)
(2.90218997 0.8249980211 0.2855980098)
(2.91237998 0.827319026 0.2850640118)
(2.923379898 0.8276420236 0.2844879925)
(2.933939934 0.8258559704 0.2839339972)
(2.94343996 0.8223189712 0.2834360003)
(2.952339888 0.8169569969 0.2829700112)
(2.959929943 0.8101850152 0.2825720012)
(2.966310024 0.8018919826 0.2822380066)
(2.971210003 0.7920330167 0.2819809914)
(2.974970102 0.7825719714 0.281783998)
(2.870349884 0.7990940213 0.2814979851)
(2.803179979 0.8600779772 0.07404919714)
(2.848140001 0.861002028 0.08995019644)
(2.845360041 0.8617429733 0.1003390029)
(2.842669964 0.8621659875 0.1103599966)
(2.839970112 0.8623020053 0.1204390004)
(2.837219954 0.8621420264 0.1307310015)
(2.834589958 0.8617110252 0.1405120045)
(2.831899881 0.8609799743 0.1505839974)
(2.829200029 0.859957993 0.1606539935)
(2.82652998 0.8586580157 0.1706179976)
(2.823980093 0.8571419716 0.1801429987)
(2.821150064 0.8551520109 0.1906760037)
(2.818700075 0.8531489968 0.1998399943)
(2.816040039 0.8506940007 0.2097470015)
(2.813450098 0.8479970098 0.2194299996)
(2.810930014 0.8450919986 0.2288309932)
(2.808330059 0.841786027 0.2385459989)
(2.805819988 0.838307023 0.2478879988)
(2.803179979 0.8343110085 0.2577370107)
(2.800679922 0.8600699902 0.0739594996)
(2.785680056 0.8600699902 0.0739594996)
(2.803179979 0.7990940213 0.2136040032)
(2.793179989 0.7990940213 0.2136040032)
(2.783179998 0.7990940213 0.2136040032)
(2.73822999 0.861002028 0.08995019644)
(2.741009951 0.8617429733 0.1003390029)
(2.743690014 0.8621659875 0.1103599966)
(2.746400118 0.8623020053 0.1204390004)
(2.749150038 0.8621420264 0.1307310015)
(2.75177002 0.8617110252 0.1405120045)
(2.75447011 0.8609799743 0.1505839974)
(2.757169962 0.859957993 0.1606539935)
(2.759840012 0.8586580157 0.1706179976)
(2.762389898 0.8571419716 0.1801429987)
(2.765219927 0.8551520109 0.1906760037)
(2.767669916 0.8531489968 0.1998399943)
(2.770329952 0.8506940007 0.2097470015)
(2.772919893 0.8479970098 0.2194299996)
(2.775439978 0.8450919986 0.2288309932)
(2.778039932 0.841786027 0.2385459989)
(2.780550003 0.838307023 0.2478879988)
(2.783179998 0.8343110085 0.2577370107)
(2.770190001 0.80794698 0.2092570066)
(2.768330097 0.8150990009 0.2023009956)
(2.76609993 0.8209390044 0.1939889938)
(2.763689995 0.8249980211 0.1849720031)
(2.761039972 0.827319026 0.1751109958)
(2.75819993 0.8276420236 0.1644770056)
(2.755460024 0.8258559704 0.154260993)
(2.753000021 0.8223189712 0.1450719982)
(2.750689983 0.8169569969 0.1364649981)
(2.748719931 0.8101850152 0.1291230023)
(2.747070074 0.8018919826 0.1229519993)
(2.745800018 0.7920330167 0.1182079986)
(2.744820118 0.7825719714 0.1145690009)
(2.777420044 0.7990940213 0.2139820009)
(2.816169977 0.80794698 0.2092570066)
(2.818039894 0.8150990009 0.2023009956)
(2.820270061 0.8209390044 0.1939889938)
(2.822679996 0.8249980211 0.1849720031)
(2.825320005 0.827319026 0.1751109958)
(2.828170061 0.8276420236 0.1644770056)
(2.830909967 0.8258559704 0.154260993)
(2.83336997 0.8223189712 0.1450719982)
(2.835680008 0.8169569969 0.1364649981)
(2.837650061 0.8101850152 0.1291230023)
(2.839299917 0.8018919826 0.1229519993)
(2.840569973 0.7920330167 0.1182079986)
(2.841550112 0.7825719714 0.1145690009)
(2.842350006 0.7753580213 0.1115569994)
(2.808949947 0.7990940213 0.2139820009)
(2.590889931 0.8600779772 0.2137569934)
(2.619910002 0.861002028 0.1759130061)
(2.628930092 0.8617429733 0.1817699969)
(2.637629986 0.8621659875 0.1874199957)
(2.646379948 0.8623020053 0.1931039989)
(2.655319929 0.8621420264 0.1989070028)
(2.663810015 0.8617110252 0.2044219971)
(2.672549963 0.8609799743 0.2101009935)
(2.681299925 0.859957993 0.2157790065)
(2.689949989 0.8586580157 0.2213969976)
(2.698220015 0.8571419716 0.2267680019)
(2.707370043 0.8551520109 0.2327069938)
(2.71532011 0.8531489968 0.2378740013)
(2.723920107 0.8506940007 0.2434609979)
(2.732330084 0.8479970098 0.2489199936)
(2.74048996 0.8450919986 0.2542209923)
(2.748929977 0.841786027 0.259698987)
(2.757040024 0.838307023 0.264966011)
(2.765589952 0.8343110085 0.2705200016)
(2.723619938 0.7990940213 0.2568820119)
(2.720530033 0.7990940213 0.2663919926)
(2.71743989 0.7990940213 0.2759029865)
(2.585939884 0.861002028 0.2804499865)
(2.596679926 0.8617429733 0.2810130119)
(2.607039928 0.8621659875 0.2815560102)
(2.617460012 0.8623020053 0.2821019888)
(2.628099918 0.8621420264 0.2826589942)
(2.638220072 0.8617110252 0.2831889987)
(2.648629904 0.8609799743 0.283735007)
(2.659039974 0.859957993 0.2842809856)
(2.669339895 0.8586580157 0.2848210037)
(2.67918992 0.8571419716 0.2853370011)
(2.690079927 0.8551520109 0.2859070003)
(2.699549913 0.8531489968 0.2864040136)
(2.709800005 0.8506940007 0.2869409919)
(2.719810009 0.8479970098 0.2874650061)
(2.729530096 0.8450919986 0.2879750133)
(2.739569902 0.841786027 0.2885009944)
(2.749229908 0.838307023 0.2890070081)
(2.759409904 0.8343110085 0.2895410061)
(2.709290028 0.80794698 0.286913991)
(2.702100039 0.8150990009 0.2865369916)
(2.693500042 0.8209390044 0.2860870063)
(2.684180021 0.8249980211 0.2855980098)
(2.673990011 0.827319026 0.2850640118)
(2.662990093 0.8276420236 0.2844879925)
(2.652430058 0.8258559704 0.2839339972)
(2.642930031 0.8223189712 0.2834360003)
(2.634030104 0.8169569969 0.2829700112)
(2.626440048 0.8101850152 0.2825720012)
(2.620059967 0.8018919826 0.2822380066)
(2.615159988 0.7920330167 0.2819809914)
(2.611399889 0.7825719714 0.281783998)
(2.716020107 0.7990940213 0.2814979851)
(2.723500013 0.80794698 0.2431840003)
(2.717459917 0.8150990009 0.2392619997)
(2.710239887 0.8209390044 0.2345750034)
(2.702409983 0.8249980211 0.2294909954)
(2.69385004 0.827319026 0.2239309996)
(2.684619904 0.8276420236 0.2179349959)
(2.675750017 0.8258559704 0.2121739984)
(2.667769909 0.8223189712 0.2069929987)
(2.660300016 0.8169569969 0.2021400034)
(2.653919935 0.8101850152 0.1979999989)
(2.648560047 0.8018919826 0.194520995)
(2.644439936 0.7920330167 0.1918459982)
(2.641279936 0.7825719714 0.189794004)
(2.638669968 0.7753580213 0.1880950034)
(2.725759983 0.7990940213 0.2515200078)
(2.658159971 0.8600779772 0.458829999)
(2.631139994 0.861002028 0.419539988)
(2.639489889 0.8617429733 0.4127719998)
(2.647559881 0.8621659875 0.4062429965)
(2.655669928 0.8623020053 0.3996759951)
(2.663949966 0.8621420264 0.3929699957)
(2.671819925 0.8617110252 0.386597991)
(2.679919958 0.8609799743 0.3800359964)
(2.688019991 0.859957993 0.3734749854)
(2.696039915 0.8586580157 0.3669829965)
(2.703700066 0.8571419716 0.3607769907)
(2.712179899 0.8551520109 0.3539150059)
(2.719549894 0.8531489968 0.3479439914)
(2.727519989 0.8506940007 0.3414900005)
(2.735310078 0.8479970098 0.3351809978)
(2.742870092 0.8450919986 0.3290559947)
(2.750689983 0.841786027 0.3227260113)
(2.758209944 0.838307023 0.3166399896)
(2.766129971 0.8343110085 0.3102230132)
(2.660130024 0.8600699902 0.4603709877)
(2.740190029 0.7990940213 0.3459280133)
(2.756370068 0.7990940213 0.3576830029)
(2.72006011 0.861002028 0.4841470122)
(2.723910093 0.8617429733 0.4741069973)
(2.7276299 0.8621659875 0.4644219875)
(2.731369972 0.8623020053 0.4546790123)
(2.735189915 0.8621420264 0.4447320104)
(2.738820076 0.8617110252 0.4352790117)
(2.74255991 0.8609799743 0.4255439937)
(2.746289968 0.859957993 0.4158110023)
(2.749989986 0.8586580157 0.4061810076)
(2.753520012 0.8571419716 0.3969739974)
(2.757430077 0.8551520109 0.3867940009)
(2.760829926 0.8531489968 0.3779369891)
(2.764509916 0.8506940007 0.3683620095)
(2.768100023 0.8479970098 0.3590030074)
(2.771589994 0.8450919986 0.3499169946)
(2.775190115 0.841786027 0.340526998)
(2.778660059 0.838307023 0.331497997)
(2.782310009 0.8343110085 0.3219789863)
(2.764319897 0.80794698 0.3688359857)
(2.761739969 0.8150990009 0.3755590022)
(2.758660078 0.8209390044 0.383592993)
(2.755310059 0.8249980211 0.3923079967)
(2.751660109 0.827319026 0.4018380046)
(2.74770999 0.8276420236 0.4121159911)
(2.743920088 0.8258559704 0.4219909906)
(2.740509987 0.8223189712 0.4308719933)
(2.737319946 0.8169569969 0.4391910136)
(2.734590054 0.8101850152 0.4462870061)
(2.732300043 0.8018919826 0.4522509873)
(2.730540037 0.7920330167 0.4568359852)
(2.729190111 0.7825719714 0.4603529871)
(2.761250019 0.7990940213 0.3607639968)
(2.727129936 0.80794698 0.3418090045)
(2.721529961 0.8150990009 0.3463410139)
(2.714839935 0.8209390044 0.35175699)
(2.707590103 0.8249980211 0.3576309979)
(2.699650049 0.827319026 0.3640559912)
(2.691099882 0.8276420236 0.370983988)
(2.682879925 0.8258559704 0.3776400089)
(2.675479889 0.8223189712 0.3836269975)
(2.668560028 0.8169569969 0.3892349899)
(2.662650108 0.8101850152 0.3940179944)
(2.657690048 0.8018919826 0.3980390131)
(2.653870106 0.7920330167 0.4011290073)
(2.650939941 0.7825719714 0.4034999907)
(2.73574996 0.7990940213 0.3422360122)
(2.910809994 0.8600839972 0.4713920057)
(2.912029982 0.8600779772 0.4705860019)
(2.866309881 0.861002028 0.4841470122)
(2.862449884 0.8617429733 0.4741069973)
(2.858740091 0.8621659875 0.4644219875)
(2.855000019 0.8623020053 0.4546790123)
(2.851180077 0.8621420264 0.4447320104)
(2.847549915 0.8617110252 0.4352790117)
(2.843810081 0.8609799743 0.4255439937)
(2.840080023 0.859957993 0.4158110023)
(2.836380005 0.8586580157 0.4061810076)
(2.832849979 0.8571419716 0.3969739974)
(2.828939915 0.8551520109 0.3867940009)
(2.825540066 0.8531489968 0.3779369891)
(2.821860075 0.8506940007 0.3683620095)
(2.818269968 0.8479970098 0.3590030074)
(2.814779997 0.8450919986 0.3499169946)
(2.811180115 0.841786027 0.340526998)
(2.807709932 0.838307023 0.331497997)
(2.804059982 0.8343110085 0.3219789863)
(2.914099932 0.8600699902 0.4691900015)
(2.829999924 0.7990940213 0.3576830029)
(2.846179962 0.7990940213 0.3459280133)
(2.955229998 0.861002028 0.419539988)
(2.946880102 0.8617429733 0.4127719998)
(2.93881011 0.8621659875 0.4062429965)
(2.930700064 0.8623020053 0.3996759951)
(2.922420025 0.8621420264 0.3929699957)
(2.914550066 0.8617110252 0.386597991)
(2.906450033 0.8609799743 0.3800359964)
(2.89835 0.859957993 0.3734749854)
(2.890330076 0.8586580157 0.3669829965)
(2.882669926 0.8571419716 0.3607769907)
(2.874190092 0.8551520109 0.3539150059)
(2.866820097 0.8531489968 0.3479439914)
(2.858850002 0.8506940007 0.3414900005)
(2.851059914 0.8479970098 0.3351809978)
(2.843489885 0.8450919986 0.3290559947)
(2.835680008 0.841786027 0.3227260113)
(2.828160048 0.838307023 0.3166399896)
(2.820240021 0.8343110085 0.3102230132)
(2.859240055 0.80794698 0.3418090045)
(2.864840031 0.8150990009 0.3463410139)
(2.871530056 0.8209390044 0.35175699)
(2.878779888 0.8249980211 0.3576309979)
(2.886719942 0.827319026 0.3640559912)
(2.895270109 0.8276420236 0.370983988)
(2.903490067 0.8258559704 0.3776400089)
(2.910880089 0.8223189712 0.3836269975)
(2.917809963 0.8169569969 0.3892349899)
(2.923719883 0.8101850152 0.3940179944)
(2.928679943 0.8018919826 0.3980390131)
(2.932499886 0.7920330167 0.4011290073)
(2.93543005 0.7825719714 0.4034999907)
(2.850620031 0.7990940213 0.3422360122)
(2.822040081 0.80794698 0.3688359857)
(2.824630022 0.8150990009 0.3755590022)
(2.827709913 0.8209390044 0.383592993)
(2.831049919 0.8249980211 0.3923079967)
(2.834709883 0.827319026 0.4018380046)
(2.838660002 0.8276420236 0.4121159911)
(2.842449903 0.8258559704 0.4219909906)
(2.845860004 0.8223189712 0.4308719933)
(2.849050045 0.8169569969 0.4391910136)
(2.851779938 0.8101850152 0.4462870061)
(2.854059935 0.8018919826 0.4522509873)
(2.855819941 0.7920330167 0.4568359852)
(2.857170105 0.7825719714 0.4603529871)
(2.858289957 0.7753580213 0.4632639885)
(2.825119972 0.7990940213 0.3607639968)
(2.793179989 0.8376449943 0.3558149934)
(2.802910089 0.8376449943 0.3550930023)
(2.793179989 0.8314620256 0.364681989)
(2.804219961 0.8314620256 0.3638629913)
(2.793179989 0.7652999759 0.3639700115)
(2.80411005 0.7652999759 0.3631590009)
(2.793179989 0.7575989962 0.3564740121)
(2.802999973 0.7575989962 0.3557449877)
(2.813469887 0.7652999759 0.3611359894)
(2.81140995 0.7575989962 0.3539269865)
(2.822679996 0.7652999759 0.3578349948)
(2.819689989 0.7575989962 0.3509599864)
(2.831969976 0.7652999759 0.3529849946)
(2.828039885 0.7575989962 0.3466019928)
(2.839220047 0.7652999759 0.347902)
(2.834549904 0.7575989962 0.3420340121)
(2.84600997 0.7652999759 0.3417760134)
(2.840660095 0.7575989962 0.3365289867)
(2.852289915 0.7652999759 0.3344720006)
(2.846299887 0.7575989962 0.3299649954)
(2.857520103 0.7652999759 0.3264989853)
(2.851000071 0.7575989962 0.3228000104)
(2.850430012 0.8376449943 0.3224740028)
(2.854170084 0.8376449943 0.3147349954)
(2.858139992 0.8314620256 0.326849997)
(2.862390041 0.8314620256 0.3180679977)
(2.861730099 0.7652999759 0.3177999854)
(2.854779959 0.7575989962 0.3149830103)
(2.857019901 0.8376449943 0.3060069978)
(2.865619898 0.8314620256 0.3081640005)
(2.864929914 0.7652999759 0.307990998)
(2.857660055 0.7575989962 0.3061670065)
(2.866709948 0.7652999759 0.2981170118)
(2.859260082 0.7575989962 0.2972939909)
(2.867419958 0.8314620256 0.2981950045)
(2.867810011 0.8314620256 0.2928679883)
(2.867110014 0.7652999759 0.2875509858)
(2.859620094 0.7575989962 0.2877990007)
(2.865910053 0.7652999759 0.2764860094)
(2.858540058 0.7575989962 0.2778550088)
(2.863600016 0.7652999759 0.2673499882)
(2.856470108 0.7575989962 0.2696459889)
(2.859960079 0.7652999759 0.2581880093)
(2.853199959 0.7575989962 0.2614119947)
(2.855159998 0.7652999759 0.2496140003)
(2.848880053 0.7575989962 0.2537069917)
(2.849679947 0.7652999759 0.2422520071)
(2.843950033 0.7575989962 0.2470909953)
(2.842730045 0.7652999759 0.2350739986)
(2.837709904 0.7575989962 0.2406409979)
(2.837270021 0.8376449943 0.2411299944)
(2.83062005 0.8376449943 0.2358690053)
(2.843209982 0.8314620256 0.2345460057)
(2.835659981 0.8314620256 0.2285750061)
(2.835259914 0.7652999759 0.2291609943)
(2.830990076 0.7575989962 0.235326007)
(2.823869944 0.8376449943 0.2317769974)
(2.828010082 0.8314620256 0.223931998)
(2.827670097 0.7652999759 0.2245620042)
(2.824179888 0.7575989962 0.2311940044)
(2.818969965 0.7652999759 0.2206690013)
(2.816359997 0.7575989962 0.2276950032)
(2.808739901 0.7652999759 0.2176840007)
(2.807159901 0.7575989962 0.2250130028)
(2.798789978 0.7652999759 0.2162429988)
(2.798219919 0.7575989962 0.2237170041)
(2.787800074 0.7652999759 0.2162259966)
(2.788340092 0.7575989962 0.223702997)
(2.777329922 0.7652999759 0.2177480012)
(2.778939962 0.7575989962 0.2250709981)
(2.767999887 0.7652999759 0.2204470038)
(2.770560026 0.7575989962 0.2274959981)
(2.758569956 0.7652999759 0.2246280015)
(2.762079954 0.7575989962 0.2312529981)
(2.762389898 0.8376449943 0.2318349928)
(2.7557199 0.8376449943 0.2358919978)
(2.758239985 0.8314620256 0.2239979953)
(2.750669956 0.8314620256 0.228602007)
(2.751070023 0.7652999759 0.2291869968)
(2.755340099 0.7575989962 0.2353499979)
(2.74909997 0.8376449943 0.241128996)
(2.743160009 0.8314620256 0.2345450073)
(2.743639946 0.7652999759 0.2350730002)
(2.748660088 0.7575989962 0.2406399995)
(2.736749887 0.7652999759 0.2421779931)
(2.742470026 0.7575989962 0.2470249981)
(2.731209993 0.7652999759 0.2496210039)
(2.737489939 0.7575989962 0.2537130117)
(2.726419926 0.7652999759 0.2581540048)
(2.73319006 0.7575989962 0.2613820136)
(2.72303009 0.7652999759 0.2665590048)
(2.730139971 0.7575989962 0.2689349949)
(2.720459938 0.7652999759 0.2765069902)
(2.727829933 0.7575989962 0.2778739929)
(2.719269991 0.7652999759 0.2871580124)
(2.726759911 0.7575989962 0.2874459922)
(2.719630003 0.7652999759 0.2978700101)
(2.727089882 0.7575989962 0.2970719934)
(2.721570015 0.7652999759 0.3085330129)
(2.728830099 0.7575989962 0.3066549897)
(2.729470015 0.8376449943 0.3064889908)
(2.732130051 0.8376449943 0.3145700097)
(2.720880032 0.8314620256 0.3087109923)
(2.72390008 0.8314620256 0.3178800046)
(2.724560022 0.7652999759 0.3176139891)
(2.731519938 0.7575989962 0.3148159981)
(2.735739946 0.8376449943 0.3221180141)
(2.727999926 0.8314620256 0.3264450133)
(2.728620052 0.7652999759 0.326097995)
(2.735160112 0.7575989962 0.3224389851)
(2.73416996 0.7652999759 0.3346000016)
(2.740149975 0.7575989962 0.3300800025)
(2.739830017 0.7652999759 0.341237992)
(2.745239973 0.7575989962 0.336044997)
(2.746829987 0.7652999759 0.3476440012)
(2.751529932 0.7575989962 0.341802001)
(2.754820108 0.7652999759 0.3532440066)
(2.758709908 0.7575989962 0.3468340039)
(2.763190031 0.7652999759 0.3576169908)
(2.766230106 0.7575989962 0.3507649899)
(2.772170067 0.7652999759 0.3609220088)
(2.774300098 0.7575989962 0.3537349999)
(2.782409906 0.7652999759 0.363180995)
(2.783499956 0.7575989962 0.3557650149)
(2.783600092 0.8376449943 0.3551119864)
(2.782299995 0.8314620256 0.3638859987)
(2.858740091 0.7986829877 0.3271889985)
(2.813849926 0.7986829877 0.362480998)
(2.762330055 0.7990940213 0.3587760031)
(2.727400064 0.7986829877 0.3267799914)
(2.718240023 0.7986829877 0.2980189919)
(2.735680103 0.7986829877 0.2412739992)
(2.767529964 0.7986829877 0.2191320062)
(2.819459915 0.7986829877 0.2193579972)
(2.850749969 0.7986829877 0.2413489968)
(2.868099928 0.7986829877 0.2982699871)
(2.964169979 0.7722139955 0.2191350013)
(2.972879887 0.7722139955 0.2456330061)
(2.953449965 0.7750250101 0.197401002)
(2.959510088 0.7735270262 0.2087869942)
(2.974270105 0.7736750245 0.2516919971)
(2.975630045 0.7735270262 0.2588230073)
(2.977269888 0.7750260234 0.2707319856)
(2.836669922 0.8603129983 0.0779158026)
(2.750040054 0.8603129983 0.07784610242)
(2.751940012 0.7751399875 0.1095589995)
(2.767990112 0.7735270262 0.1066299975)
(2.773659945 0.7736750245 0.1059390008)
(2.812710047 0.7736750245 0.1059390008)
(2.818490028 0.7735270262 0.1066439971)
(2.613209963 0.7722139955 0.2467619926)
(2.622169971 0.7722139955 0.2191839963)
(2.624160051 0.7736740112 0.2145610005)
(2.626980066 0.7735270262 0.2085479945)
(2.632920027 0.7750250101 0.197401002)
(2.637929916 0.7753350139 0.1892250031)
(2.649719954 0.8603129983 0.4521409869)
(2.697190046 0.7722139955 0.4482530057)
(2.69017005 0.7723640203 0.4437809885)
(2.720479965 0.7751389742 0.4602180123)
(2.888180017 0.8603129983 0.484544009)
(2.891060114 0.7722139955 0.4470979869)
(2.926970005 0.8603129983 0.4602150023)
(2.851779938 0.8603129983 0.0815827027)
(2.84104991 0.7753350139 0.1112029999)
(2.609100103 0.7750260234 0.2707319856)
(2.859549999 0.7753350139 0.4627850056)
(2.792370081 0.5510630012 1.231230021)
(2.792469978 0.5511050224 1.231189966)
(2.792380095 0.5516089797 1.23150003)
(3.002899885 0.8600959778 0.2374050021)
(3.003210068 0.8601009846 0.2386360019)
(3.003509998 0.8601049781 0.2398640066)
(3.003799915 0.8601089716 0.2410939932)
(3.004090071 0.8601130247 0.2423309982)
(3.004390001 0.8601179719 0.2436420023)
(3.004679918 0.860122025 0.2449630052)
(3.004970074 0.8601260185 0.2462819964)
(3.005239964 0.860130012 0.2476010025)
(3.005789995 0.8601379991 0.2504200041)
(3.006309986 0.8601449728 0.2532469928)
(3.006439924 0.8601469994 0.2540000081)
(3.006570101 0.8601480126 0.2547599971)
(3.006819963 0.8601520061 0.2562740147)
(3.007060051 0.8601549864 0.257795006)
(3.007289886 0.8601589799 0.2593170106)
(3.00751996 0.8601620197 0.2609339952)
(3.007740021 0.860165 0.2625670135)
(3.008140087 0.8601700068 0.2658289969)
(3.008320093 0.860172987 0.2675470114)
(3.008500099 0.8601750135 0.2692809999)
(3.008810043 0.8601790071 0.2727459967)
(3.008949995 0.860180974 0.2745479941)
(3.009079933 0.8601819873 0.2763639987)
(2.997169971 0.8600640297 0.2184630036)
(2.995480061 0.8600779772 0.2137569934)
(2.998759985 0.8600590229 0.2232030034)
(2.972049952 0.7726590037 0.2423969954)
(2.969619989 0.7720819712 0.2340649962)
(2.969980001 0.7721089721 0.2351929992)
(2.968430042 0.7721080184 0.2304250002)
(2.969219923 0.7720720172 0.2328020036)
(2.966749907 0.7724030018 0.2257090062)
(2.965869904 0.7726590037 0.2233760059)
(2.994440079 0.860089004 0.2110159993)
(2.99416995 0.8600919843 0.2103320062)
(2.993900061 0.8600950241 0.209649995)
(2.993639946 0.8600969911 0.2089740038)
(2.993360043 0.8600999713 0.2082920074)
(2.992810011 0.8601049781 0.2069260031)
(2.992239952 0.8601099849 0.2055570036)
(2.991660118 0.8601149917 0.2041960061)
(2.991080046 0.8601189852 0.2028439939)
(2.990780115 0.860122025 0.2021570057)
(2.990479946 0.860123992 0.2014770061)
(2.989870071 0.8601279855 0.2001170069)
(2.989249945 0.860131979 0.1987670064)
(2.988620043 0.8601359725 0.1974159926)
(2.988310099 0.8601379991 0.1967400014)
(2.987979889 0.8601400256 0.1960600019)
(2.98732996 0.8601440191 0.1947160065)
(2.986670017 0.8601480126 0.1933719963)
(2.986340046 0.8601499796 0.1927019954)
(2.986000061 0.8601509929 0.1920299977)
(2.984630108 0.8601580262 0.1893540025)
(2.984280109 0.8601589799 0.1886830032)
(2.983930111 0.8601610065 0.1880169958)
(2.983210087 0.8601629734 0.1866880059)
(2.982490063 0.8601660132 0.185363993)
(2.982120037 0.8601670265 0.1846960038)
(2.981760025 0.8601689935 0.1840369999)
(2.980259895 0.860172987 0.1814049929)
(2.979500055 0.8601750135 0.1800940037)
(2.97871995 0.8601769805 0.1787859946)
(2.977149963 0.8601800203 0.1762039959)
(2.976360083 0.8601819873 0.1749220043)
(2.975539923 0.8601830006 0.1736370027)
(2.948440075 0.7753350139 0.1892250031)
(2.950639963 0.775232017 0.1926929951)
(2.961430073 0.7738479972 0.2128430009)
(2.961819887 0.7737619877 0.2137040049)
(2.96288991 0.7735090256 0.2161200047)
(2.977950096 0.7753059864 0.2789260149)
(2.977659941 0.7751889825 0.2748290002)
(2.977540016 0.7751399875 0.2734690011)
(2.976720095 0.7747830153 0.2660300136)
(2.976919889 0.7748709917 0.2676019967)
(2.976510048 0.7746890187 0.2644540071)
(2.975399971 0.7741889954 0.2574709952)
(2.975579977 0.7742710114 0.2585090101)
(2.974649906 0.7738490105 0.2535380125)
(2.80666995 0.860090971 0.07422120124)
(2.807830095 0.8600959778 0.07429110259)
(2.809060097 0.8600999713 0.07437220216)
(2.810290098 0.8601040244 0.07446079701)
(2.8115201 0.8601080179 0.07455579937)
(2.812750101 0.8601120114 0.0746589005)
(2.814059973 0.8601170182 0.07477589697)
(2.815370083 0.8601210117 0.07490190119)
(2.816679955 0.8601250052 0.07503589988)
(2.817990065 0.8601289988 0.0751774013)
(2.819390059 0.8601329923 0.07533869892)
(2.820790052 0.8601359725 0.07550849766)
(2.822180033 0.8601400256 0.07568749785)
(2.823580027 0.8601440191 0.0758766979)
(2.828089952 0.8601539731 0.07655090094)
(2.829590082 0.8601570129 0.07679750025)
(2.831209898 0.8601610065 0.07707569748)
(2.832829952 0.8601639867 0.07736749947)
(2.833640099 0.860165 0.07751850039)
(2.834450006 0.8601670265 0.07767239958)
(2.835259914 0.8601679802 0.07782849669)
(2.836070061 0.8601689935 0.07798969746)
(2.839560032 0.8601740003 0.07871860266)
(2.841300011 0.8601769805 0.07910560071)
(2.843039989 0.8601790071 0.07950539887)
(2.844890118 0.8601800203 0.07995170355)
(2.846740007 0.8601819873 0.08041170239)
(2.848589897 0.8601840138 0.08089239895)
(2.793179989 0.8600590229 0.07384409755)
(2.788170099 0.7722190022 0.1049740016)
(2.789429903 0.7721549869 0.1049449965)
(2.780859947 0.8600869775 0.07415740192)
(2.779700041 0.860090971 0.07422120124)
(2.778539896 0.8600959778 0.07429110259)
(2.777309895 0.8600999713 0.07437220216)
(2.776070118 0.8601040244 0.07446079701)
(2.774849892 0.8601080179 0.07455579937)
(2.77361989 0.8601120114 0.0746589005)
(2.772310019 0.8601170182 0.07477589697)
(2.770999908 0.8601210117 0.07490190119)
(2.769690037 0.8601250052 0.07503589988)
(2.768379927 0.8601289988 0.0751774013)
(2.766979933 0.8601329923 0.07533869892)
(2.765579939 0.8601359725 0.07550849766)
(2.764189959 0.8601400256 0.07568749785)
(2.762789965 0.8601440191 0.0758766979)
(2.75977993 0.8601509929 0.07631479949)
(2.758280039 0.8601539731 0.07655090094)