/*--------------------------------*- C++ -*----------------------------------*\
| =========                 |                                                 |
| \\      /  F ield         | OpenFOAM: The Open Source CFD Toolbox           |
|  \\    /   O peration     | Version:  7                                     |
|   \\  /    A nd           | Web:      www.OpenFOAM.com                      |
|    \\/     M anipulation  |                                                 |
\*---------------------------------------------------------------------------*/
FoamFile
{
    version     2.0;
    format      ascii;
    class       classe;
    object      name;
}
    1405
    (
      ( 3.0019779205322266 0.8600828051567078 0.23393982648849487)
      ( 3.0016560554504395 0.8600782155990601 0.23277810215950012)
      ( 3.0022895336151123 0.8600873351097107 0.23509007692337036)
      ( 3.0028960704803467 0.8600960969924927 0.2374049872159958)
      ( 3.003206968307495 0.8601005673408508 0.2386361062526703)
      ( 3.003509759902954 0.8601049184799194 0.23986448347568512)
      ( 3.003804922103882 0.8601092100143433 0.2410944551229477)
      ( 3.004093885421753 0.8601133227348328 0.24233093857765198)
      ( 3.00439190864563 0.8601175546646118 0.24364160001277924)
      ( 3.004683256149292 0.8601217865943909 0.2449628859758377)
      ( 3.004965305328369 0.8601257801055908 0.24628229439258575)
      ( 3.0052385330200195 0.8601296544075012 0.24760061502456665)
      ( 3.005793809890747 0.8601375818252563 0.25041988492012024)
      ( 3.00631046295166 0.860144853591919 0.2532474994659424)
      ( 3.006441593170166 0.8601466417312622 0.2540002763271332)
      ( 3.006571054458618 0.8601484894752502 0.2547602653503418)
      ( 3.0068199634552 0.860152006149292 0.2562735974788666)
      ( 3.007059335708618 0.8601553440093994 0.2577950358390808)
      ( 3.00728702545166 0.8601585030555725 0.2593171000480652)
      ( 3.007517099380493 0.8601616621017456 0.26093441247940063)
      ( 3.0077359676361084 0.8601647019386292 0.2625672519207001)
      ( 3.0081353187561035 0.8601701259613037 0.26582854986190796)
      ( 3.0083248615264893 0.8601726293563843 0.26754680275917053)
      ( 3.008502244949341 0.8601750135421753 0.2692809998989105)
      ( 3.00881290435791 0.8601790070533752 0.2727462947368622)
      ( 3.0089519023895264 0.8601807951927185 0.27454841136932373)
      ( 3.0090763568878174 0.8601822853088379 0.2763643264770508)
      ( 3.009277582168579 0.8601846098899841 0.2799859046936035)
      ( 3.0004262924194336 0.8610019087791443 0.2804498076438904)
      ( 2.9896860122680664 0.8617430925369263 0.2810126543045044)
      ( 2.979326009750366 0.8621655702590942 0.2815555930137634)
      ( 2.968904733657837 0.862301766872406 0.28210175037384033)
      ( 2.9582648277282715 0.8621422648429871 0.2826593816280365)
      ( 2.948152542114258 0.861710786819458 0.2831893265247345)
      ( 2.9377388954162598 0.8609803915023804 0.283735066652298)
      ( 2.927328586578369 0.8599584102630615 0.2842806577682495)
      ( 2.917026996612549 0.8586575388908386 0.284820556640625)
      ( 2.907179117202759 0.8571418523788452 0.2853366732597351)
      ( 2.896289587020874 0.8551520705223083 0.2859073579311371)
      ( 2.8868157863616943 0.8531490564346313 0.2864038646221161)
      ( 2.876573085784912 0.8506936430931091 0.28694066405296326)
      ( 2.8665623664855957 0.84799724817276 0.28746530413627625)
      ( 2.8568429946899414 0.8450924158096313 0.28797465562820435)
      ( 2.84679913520813 0.84178626537323 0.2885010540485382)
      ( 2.8371407985687256 0.8383072018623352 0.2890072464942932)
      ( 2.826958179473877 0.8343111276626587 0.2895408570766449)
      ( 3.0002574920654297 0.8600635528564453 0.22797571122646332)
      ( 2.997166633605957 0.8600635528564453 0.21846330165863037)
      ( 2.9954757690429688 0.8600782155990601 0.2137569636106491)
      ( 2.998760461807251 0.8600586652755737 0.22320303320884705)
      ( 2.868931293487549 0.7990941405296326 0.2759029269218445)
      ( 2.8658413887023926 0.7990941405296326 0.2663923501968384)
      ( 2.8627512454986572 0.7990941405296326 0.25688180327415466)
      ( 2.970702886581421 0.7722190618515015 0.23759010434150696)
      ( 2.9720520973205566 0.7726593017578125 0.24239706993103027)
      ( 2.968428373336792 0.7721084952354431 0.2304251343011856)
      ( 2.9692184925079346 0.7720720171928406 0.23280158638954163)
      ( 2.9667537212371826 0.7724025249481201 0.22570885717868805)
      ( 2.967188835144043 0.7723004817962646 0.2268960177898407)
      ( 2.965871572494507 0.7726593017578125 0.22337591648101807)
      ( 2.9944374561309814 0.8600893616676331 0.21101634204387665)
      ( 2.994171380996704 0.860092043876648 0.21033154428005219)
      ( 2.993903636932373 0.8600946664810181 0.2096496820449829)
      ( 2.993635416030884 0.8600972890853882 0.20897386968135834)
      ( 2.9933619499206543 0.8600998520851135 0.20829153060913086)
      ( 2.9928066730499268 0.8601049780845642 0.20692601799964905)
      ( 2.992238759994507 0.8601099252700806 0.20555725693702698)
      ( 2.9916625022888184 0.8601146936416626 0.20419561862945557)
      ( 2.991079568862915 0.8601193428039551 0.20284369587898254)
      ( 2.990778923034668 0.8601216673851013 0.20215654373168945)
      ( 2.990478754043579 0.8601238131523132 0.20147742331027985)
      ( 2.9898691177368164 0.8601282238960266 0.2001165747642517)
      ( 2.989253282546997 0.8601324558258057 0.1987674981355667)
      ( 2.988624334335327 0.8601364493370056 0.1974155306816101)
      ( 2.9883060455322266 0.8601384162902832 0.19674047827720642)
      ( 2.9879822731018066 0.8601403832435608 0.19605965912342072)
      ( 2.9873340129852295 0.8601441383361816 0.19471615552902222)
      ( 2.9866743087768555 0.8601477742195129 0.19337233901023865)
      ( 2.9863405227661133 0.8601495027542114 0.19270196557044983)
      ( 2.9860029220581055 0.8601511716842651 0.192029669880867)
      ( 2.9846296310424805 0.8601576685905457 0.1893538236618042)
      ( 2.9842779636383057 0.8601590991020203 0.18868334591388702)
      ( 2.9839255809783936 0.8601606488227844 0.18801699578762054)
      ( 2.983213424682617 0.8601634502410889 0.18668824434280396)
      ( 2.9824912548065186 0.860166072845459 0.18536365032196045)
      ( 2.9821228981018066 0.860167384147644 0.18469634652137756)
      ( 2.9817557334899902 0.8601685762405396 0.18403691053390503)
      ( 2.9802591800689697 0.8601731061935425 0.1814049929380417)
      ( 2.9794952869415283 0.8601751327514648 0.1800941824913025)
      ( 2.9787206649780273 0.8601769804954529 0.17878641188144684)
      ( 2.9771530628204346 0.8601801991462708 0.17620407044887543)
      ( 2.976356029510498 0.8601815104484558 0.1749216616153717)
      ( 2.9755442142486572 0.8601827621459961 0.1736368089914322)
      ( 2.973893880844116 0.8601846098899841 0.1710851788520813)
      ( 2.9664599895477295 0.8610019087791443 0.17591263353824615)
      ( 2.957440137863159 0.8617430925369263 0.1817701756954193)
      ( 2.948739528656006 0.8621655702590942 0.18742047250270844)
      ( 2.939987897872925 0.862301766872406 0.19310398399829865)
      ( 2.9310519695281982 0.8621422648429871 0.19890692830085754)
      ( 2.9225594997406006 0.861710786819458 0.20442195236682892)
      ( 2.913814067840576 0.8609803915023804 0.21010132133960724)
      ( 2.9050710201263428 0.8599584102630615 0.215779110789299)
      ( 2.8964197635650635 0.8586575388908386 0.22139737010002136)
      ( 2.8881492614746094 0.8571418523788452 0.22676828503608704)
      ( 2.8790040016174316 0.8551520705223083 0.23270732164382935)
      ( 2.8710474967956543 0.8531490564346313 0.23787425458431244)
      ( 2.862445592880249 0.8506936430931091 0.2434605062007904)
      ( 2.8540382385253906 0.84799724817276 0.24892017245292664)
      ( 2.8458757400512695 0.8450924158096313 0.2542210519313812)
      ( 2.8374407291412354 0.84178626537323 0.2596988081932068)
      ( 2.829329252243042 0.8383072018623352 0.26496630907058716)
      ( 2.8207778930664062 0.8343111276626587 0.2705197334289551)
      ( 2.8577911853790283 0.7990941405296326 0.24648301303386688)
      ( 2.8628714084625244 0.8079467415809631 0.24318385124206543)
      ( 2.868910789489746 0.8150989413261414 0.23926174640655518)
      ( 2.8761279582977295 0.8209385871887207 0.23457498848438263)
      ( 2.8839571475982666 0.8249980807304382 0.22949068248271942)
      ( 2.8925185203552246 0.8273188471794128 0.22393076121807098)
      ( 2.9017515182495117 0.8276416659355164 0.21793484687805176)
      ( 2.9106221199035645 0.8258560299873352 0.212174192070961)
      ( 2.918600559234619 0.8223189115524292 0.20699289441108704)
      ( 2.9260737895965576 0.816956639289856 0.20213982462882996)
      ( 2.932448148727417 0.8101851940155029 0.19800011813640594)
      ( 2.9378063678741455 0.8018916845321655 0.19452060759067535)
      ( 2.941924810409546 0.792033314704895 0.19184601306915283)
      ( 2.945084810256958 0.782572329044342 0.18979398906230927)
      ( 2.947700262069702 0.7753584384918213 0.18809548020362854)
      ( 2.860612154006958 0.7990941405296326 0.2515198588371277)
      ( 2.948439121246338 0.7753347158432007 0.18922489881515503)
      ( 2.9491708278656006 0.775305986404419 0.1903613805770874)
      ( 2.9506356716156006 0.7752323150634766 0.19269269704818726)
      ( 2.9534502029418945 0.7750251889228821 0.19740143418312073)
      ( 2.9614293575286865 0.7738479375839233 0.21284295618534088)
      ( 2.9618215560913086 0.7737618088722229 0.2137037217617035)
      ( 2.9622068405151367 0.773673951625824 0.21456092596054077)
      ( 2.9628942012786865 0.7735090851783752 0.21612048149108887)
      ( 2.8770804405212402 0.8079467415809631 0.28691408038139343)
      ( 2.8710310459136963 0.7990941405296326 0.28723111748695374)
      ( 2.8842716217041016 0.8150989413261414 0.28653720021247864)
      ( 2.8928651809692383 0.8209385871887207 0.2860868275165558)
      ( 2.9021875858306885 0.8249980807304382 0.2855982780456543)
      ( 2.912382125854492 0.8273188471794128 0.2850639820098877)
      ( 2.9233760833740234 0.8276416659355164 0.2844878137111664)
      ( 2.933938503265381 0.8258560299873352 0.28393426537513733)
      ( 2.943438768386841 0.8223189115524292 0.2834363579750061)
      ( 2.9523372650146484 0.816956639289856 0.28297004103660583)
      ( 2.959927558898926 0.8101851940155029 0.2825722396373749)
      ( 2.9663074016571045 0.8018916845321655 0.2822378873825073)
      ( 2.9712114334106445 0.792033314704895 0.28198087215423584)
      ( 2.9749739170074463 0.782572329044342 0.28178369998931885)
      ( 2.978088140487671 0.7753584384918213 0.28162047266960144)
      ( 2.8703525066375732 0.7990941405296326 0.2814981937408447)
      ( 2.9780220985412598 0.7753347158432007 0.2802733778953552)
      ( 2.9779465198516846 0.7753060460090637 0.27892571687698364)
      ( 2.977761745452881 0.7752325534820557 0.27618393301963806)
      ( 2.9776551723480225 0.7751888036727905 0.2748294770717621)
      ( 2.9775383472442627 0.7751397490501404 0.2734687924385071)
      ( 2.9772725105285645 0.7750261425971985 0.27073195576667786)
      ( 2.9769177436828613 0.7748712301254272 0.2676016092300415)
      ( 2.9767191410064697 0.7747834324836731 0.26602986454963684)
      ( 2.9765067100524902 0.7746888399124146 0.26445430517196655)
      ( 2.9753971099853516 0.7741885185241699 0.2574709951877594)
      ( 2.975579261779785 0.7742711901664734 0.25850874185562134)
      ( 2.9742703437805176 0.7736747860908508 0.25169166922569275)
      ( 2.9746510982513428 0.7738487720489502 0.25353777408599854)
      ( 2.805509328842163 0.8600870966911316 0.07415742427110672)
      ( 2.8031845092773438 0.8600782155990601 0.074049212038517)
      ( 2.8066728115081787 0.8600914478302002 0.07422119379043579)
      ( 2.8078315258026123 0.8600955605506897 0.07429108023643494)
      ( 2.8090615272521973 0.8600999712944031 0.07437223941087723)
      ( 2.8102939128875732 0.8601042628288269 0.07446076720952988)
      ( 2.8115179538726807 0.8601083755493164 0.07455584406852722)
      ( 2.812751293182373 0.8601124286651611 0.07465885579586029)
      ( 2.8140578269958496 0.8601166605949402 0.07477594166994095)
      ( 2.8153717517852783 0.8601207137107849 0.07490190118551254)
      ( 2.816683769226074 0.8601247072219849 0.07503590732812881)
      ( 2.817988872528076 0.8601285219192505 0.0751773864030838)
      ( 2.8193917274475098 0.8601325154304504 0.07533865422010422)
      ( 2.8207874298095703 0.8601363301277161 0.07550845295190811)
      ( 2.8221817016601562 0.8601400256156921 0.0756874829530716)
      ( 2.8235812187194824 0.8601435422897339 0.07587669044733047)
      ( 2.8265843391418457 0.8601507544517517 0.07631475478410721)
      ( 2.828089952468872 0.8601540923118591 0.07655094563961029)
      ( 2.8295907974243164 0.860157310962677 0.07679751515388489)
      ( 2.8312089443206787 0.8601605892181396 0.07707572728395462)
      ( 2.8328306674957275 0.8601636290550232 0.07736747711896896)
      ( 2.8336424827575684 0.8601651191711426 0.07751847803592682)
      ( 2.8344526290893555 0.8601665496826172 0.07767239212989807)
      ( 2.8352575302124023 0.860167920589447 0.077828548848629)
      ( 2.836071014404297 0.8601692318916321 0.07798965275287628)
      ( 2.8395609855651855 0.8601743578910828 0.07871856540441513)
      ( 2.841304063796997 0.8601766228675842 0.07910563796758652)
      ( 2.8430354595184326 0.8601785898208618 0.07950539886951447)
      ( 2.8448939323425293 0.8601804971694946 0.0799516886472702)
      ( 2.8467369079589844 0.8601821064949036 0.0804116502404213)
      ( 2.8485915660858154 0.8601835370063782 0.08089244365692139)
      ( 2.8504369258880615 0.8601846098899841 0.08138862252235413)
      ( 2.8481428623199463 0.8610019087791443 0.08995018154382706)
      ( 2.8453593254089355 0.8617430925369263 0.1003386378288269)
      ( 2.8426742553710938 0.8621655702590942 0.11035952717065811)
      ( 2.8399734497070312 0.862301766872406 0.12043934315443039)
      ( 2.8372159004211426 0.8621422648429871 0.13073094189167023)
      ( 2.834594964981079 0.861710786819458 0.14051192998886108)
      ( 2.8318960666656494 0.8609803915023804 0.1505843997001648)
      ( 2.829197883605957 0.8599584102630615 0.16065402328968048)
      ( 2.8265280723571777 0.8586575388908386 0.17061810195446014)
      ( 2.8239758014678955 0.8571418523788452 0.18014349043369293)
      ( 2.821153402328491 0.8551520705223083 0.1906764805316925)
      ( 2.818697929382324 0.8531490564346313 0.19984011352062225)
      ( 2.8160433769226074 0.8506936430931091 0.20974743366241455)
      ( 2.813448905944824 0.84799724817276 0.21943022310733795)
      ( 2.810930013656616 0.8450924158096313 0.22883139550685883)
      ( 2.8083267211914062 0.84178626537323 0.23854635655879974)
      ( 2.805823564529419 0.8383072018623352 0.24788829684257507)
      ( 2.8031845092773438 0.8343111276626587 0.2577373683452606)
      ( 2.8006844520568848 0.8600696325302124 0.07395946979522705)
      ( 2.7856829166412354 0.8600696325302124 0.07395952194929123)
      ( 2.78318452835083 0.8600782155990601 0.074049212038517)
      ( 2.788182258605957 0.8600635528564453 0.07389543205499649)
      ( 2.793184518814087 0.8600586652755737 0.07384408265352249)
      ( 2.7981855869293213 0.8600635528564453 0.0738954171538353)
      ( 2.8031845092773438 0.7990941405296326 0.21360409259796143)
      ( 2.793184518814087 0.7990941405296326 0.21360409259796143)
      ( 2.78318452835083 0.7990941405296326 0.21360409259796143)
      ( 2.788174867630005 0.7722190022468567 0.10497430711984634)
      ( 2.789426326751709 0.7721547484397888 0.10494469851255417)
      ( 2.7808597087860107 0.8600870966911316 0.07415742427110672)
      ( 2.779695987701416 0.8600914478302002 0.07422119379043579)
      ( 2.7785372734069824 0.8600955605506897 0.07429108023643494)
      ( 2.7773072719573975 0.8600999712944031 0.07437223941087723)
      ( 2.7760748863220215 0.8601042628288269 0.07446076720952988)
      ( 2.774851083755493 0.8601083755493164 0.07455584406852722)
      ( 2.77361798286438 0.8601124286651611 0.07465885579586029)
      ( 2.772310972213745 0.8601166605949402 0.07477594166994095)
      ( 2.7709970474243164 0.8601207137107849 0.07490190118551254)
      ( 2.7696850299835205 0.8601247072219849 0.07503590732812881)
      ( 2.7683804035186768 0.8601285219192505 0.0751773864030838)
      ( 2.766977071762085 0.8601325154304504 0.07533865422010422)
      ( 2.7655816078186035 0.8601363301277161 0.07550845295190811)
      ( 2.7641873359680176 0.8601400256156921 0.0756874829530716)
      ( 2.7627875804901123 0.8601435422897339 0.07587669044733047)
      ( 2.759784698486328 0.8601507544517517 0.07631475478410721)
      ( 2.758279323577881 0.8601540923118591 0.07655094563961029)
      ( 2.7567780017852783 0.860157310962677 0.07679751515388489)
      ( 2.755159854888916 0.8601605892181396 0.07707572728395462)
      ( 2.7535386085510254 0.8601636290550232 0.07736747711896896)
      ( 2.7527263164520264 0.8601651191711426 0.07751847803592682)
      ( 2.7519161701202393 0.8601665496826172 0.07767239212989807)
      ( 2.7511112689971924 0.860167920589447 0.077828548848629)
      ( 2.750298023223877 0.8601692318916321 0.07798965275287628)
      ( 2.7468080520629883 0.8601743578910828 0.07871856540441513)
      ( 2.7450649738311768 0.8601766228675842 0.07910563796758652)
      ( 2.7433338165283203 0.8601785898208618 0.07950539886951447)
      ( 2.7414748668670654 0.8601804971694946 0.0799516886472702)
      ( 2.7396323680877686 0.8601821064949036 0.0804116502404213)
      ( 2.7377772331237793 0.8601835370063782 0.08089244365692139)
      ( 2.735931873321533 0.8601846098899841 0.08138862252235413)
      ( 2.7382261753082275 0.8610019087791443 0.08995018154382706)
      ( 2.741009473800659 0.8617430925369263 0.1003386378288269)
      ( 2.74369478225708 0.8621655702590942 0.11035952717065811)
      ( 2.7463955879211426 0.862301766872406 0.12043934315443039)
      ( 2.7491533756256104 0.8621422648429871 0.13073094189167023)
      ( 2.7517738342285156 0.861710786819458 0.14051192998886108)
      ( 2.7544729709625244 0.8609803915023804 0.1505843997001648)
      ( 2.757171154022217 0.8599584102630615 0.16065402328968048)
      ( 2.759840965270996 0.8586575388908386 0.17061810195446014)
      ( 2.7623932361602783 0.8571418523788452 0.18014349043369293)
      ( 2.7652156352996826 0.8551520705223083 0.1906764805316925)
      ( 2.7676708698272705 0.8531490564346313 0.19984011352062225)
      ( 2.7703256607055664 0.8506936430931091 0.20974743366241455)
      ( 2.7729201316833496 0.84799724817276 0.21943022310733795)
      ( 2.7754392623901367 0.8450924158096313 0.22883139550685883)
      ( 2.7780423164367676 0.84178626537323 0.23854635655879974)
      ( 2.780545473098755 0.8383072018623352 0.24788829684257507)
      ( 2.78318452835083 0.8343111276626587 0.2577373683452606)
      ( 2.771761894226074 0.7990941405296326 0.21510787308216095)
      ( 2.7701940536499023 0.8079467415809631 0.20925676822662354)
      ( 2.7683303356170654 0.8150989413261414 0.20230087637901306)
      ( 2.7661030292510986 0.8209385871887207 0.19398880004882812)
      ( 2.7636868953704834 0.8249980807304382 0.18497170507907867)
      ( 2.761044979095459 0.8273188471794128 0.17511111497879028)
      ( 2.758195638656616 0.8276416659355164 0.16447724401950836)
      ( 2.755458116531372 0.8258560299873352 0.15426063537597656)
      ( 2.7529959678649902 0.8223189115524292 0.14507153630256653)
      ( 2.7506895065307617 0.816956639289856 0.13646453619003296)
      ( 2.7487223148345947 0.8101851940155029 0.12912271916866302)
      ( 2.7470688819885254 0.8018916845321655 0.12295175343751907)
      ( 2.745797872543335 0.792033314704895 0.11820829659700394)
      ( 2.7448227405548096 0.782572329044342 0.11456901580095291)
      ( 2.7440154552459717 0.7753584384918213 0.11155667155981064)
      ( 2.777423858642578 0.7990941405296326 0.21398165822029114)
      ( 2.745317220687866 0.7753347158432007 0.11120311170816422)
      ( 2.7466230392456055 0.7753060460090637 0.11085861176252365)
      ( 2.7492897510528564 0.7752324938774109 0.11018653959035873)
      ( 2.7506120204925537 0.7751886248588562 0.10986892879009247)
      ( 2.751943588256836 0.775139570236206 0.10955941677093506)
      ( 2.754631519317627 0.7750257253646851 0.10896606743335724)
      ( 2.7577178478240967 0.7748708128929138 0.10833621025085449)
      ( 2.7592740058898926 0.7747830152511597 0.10803931951522827)
      ( 2.7717888355255127 0.7738484740257263 0.10614722967147827)
      ( 2.7727279663085938 0.7737623453140259 0.106040358543396)
      ( 2.7736618518829346 0.7736745476722717 0.10593891888856888)
      ( 2.7753591537475586 0.7735095620155334 0.10576680302619934)
      ( 2.7770683765411377 0.7733363509178162 0.10560943931341171)
      ( 2.8161747455596924 0.8079467415809631 0.20925676822662354)
      ( 2.8146069049835205 0.7990941405296326 0.21510787308216095)
      ( 2.8180384635925293 0.8150989413261414 0.20230087637901306)
      ( 2.820265769958496 0.8209385871887207 0.19398880004882812)
      ( 2.8226819038391113 0.8249980807304382 0.18497170507907867)
      ( 2.825324296951294 0.8273188471794128 0.17511111497879028)
      ( 2.8281736373901367 0.8276416659355164 0.16447724401950836)
      ( 2.8309109210968018 0.8258560299873352 0.15426063537597656)
      ( 2.8333733081817627 0.8223189115524292 0.14507153630256653)
      ( 2.835679531097412 0.816956639289856 0.13646453619003296)
      ( 2.837646722793579 0.8101851940155029 0.12912271916866302)
      ( 2.8393003940582275 0.8018916845321655 0.12295175343751907)
      ( 2.840571403503418 0.792033314704895 0.11820829659700394)
      ( 2.8415462970733643 0.782572329044342 0.11456901580095291)
      ( 2.842353582382202 0.7753584384918213 0.11155667155981064)
      ( 2.8089451789855957 0.7990941405296326 0.21398165822029114)
      ( 2.8397459983825684 0.7753060460090637 0.11085861176252365)
      ( 2.8410518169403076 0.7753347158432007 0.11120311170816422)
      ( 2.8370790481567383 0.7752324938774109 0.11018653959035873)
      ( 2.835756778717041 0.7751886248588562 0.10986892879009247)
      ( 2.834425210952759 0.775139570236206 0.10955941677093506)
      ( 2.8317372798919678 0.7750257253646851 0.10896606743335724)
      ( 2.828651189804077 0.7748708128929138 0.10833621025085449)
      ( 2.813640832901001 0.7737623453140259 0.106040358543396)
      ( 2.814579963684082 0.7738484740257263 0.10614722967147827)
      ( 2.81270694732666 0.7736745476722717 0.10593891888856888)
      ( 2.809300422668457 0.7733363509178162 0.10560943931341171)
      ( 2.8110098838806152 0.7735095620155334 0.10576680302619934)
      ( 2.8031845092773438 0.7726593017578125 0.10517680644989014)
      ( 2.8046746253967285 0.7728323936462402 0.10526345670223236)
      ( 2.5919313430786133 0.8600893616676331 0.21101634204387665)
      ( 2.590893268585205 0.8600782155990601 0.2137569636106491)
      ( 2.5921974182128906 0.860092043876648 0.21033154428005219)
      ( 2.592465400695801 0.8600946664810181 0.2096496820449829)
      ( 2.592733383178711 0.8600972890853882 0.20897386968135834)
      ( 2.5930068492889404 0.8600998520851135 0.20829153060913086)
      ( 2.593562364578247 0.8601049780845642 0.20692601799964905)
      ( 2.594130039215088 0.8601099252700806 0.20555725693702698)
      ( 2.5947062969207764 0.8601146936416626 0.20419561862945557)
      ( 2.595289468765259 0.8601193428039551 0.20284369587898254)
      ( 2.595590114593506 0.8601216673851013 0.20215654373168945)
      ( 2.5958900451660156 0.8601238131523132 0.20147742331027985)
      ( 2.5964999198913574 0.8601282238960266 0.2001165747642517)
      ( 2.597115993499756 0.8601324558258057 0.1987674981355667)
      ( 2.5977447032928467 0.8601364493370056 0.1974155306816101)
      ( 2.5980629920959473 0.8601384162902832 0.19674047827720642)
      ( 2.5983870029449463 0.8601403832435608 0.19605965912342072)
      ( 2.5990350246429443 0.8601441383361816 0.19471615552902222)
      ( 2.5996947288513184 0.8601477742195129 0.19337233901023865)
      ( 2.6000282764434814 0.8601495027542114 0.19270196557044983)
      ( 2.6003658771514893 0.8601511716842651 0.192029669880867)
      ( 2.6017391681671143 0.8601576685905457 0.1893538236618042)
      ( 2.602091073989868 0.8601590991020203 0.18868334591388702)
      ( 2.6024436950683594 0.8601606488227844 0.18801699578762054)
      ( 2.6031558513641357 0.8601634502410889 0.18668824434280396)
      ( 2.6038777828216553 0.860166072845459 0.18536365032196045)
      ( 2.604246139526367 0.860167384147644 0.18469634652137756)
      ( 2.6046133041381836 0.8601685762405396 0.18403691053390503)
      ( 2.606109619140625 0.8601731061935425 0.1814049929380417)
      ( 2.6068735122680664 0.8601751327514648 0.1800941824913025)
      ( 2.6076481342315674 0.8601769804954529 0.17878641188144684)
      ( 2.60921573638916 0.8601801991462708 0.17620407044887543)
      ( 2.610013246536255 0.8601815104484558 0.1749216616153717)
      ( 2.6108248233795166 0.8601827621459961 0.1736368089914322)
      ( 2.6124753952026367 0.8601846098899841 0.1710851788520813)
      ( 2.6199090480804443 0.8610019087791443 0.17591263353824615)
      ( 2.6289286613464355 0.8617430925369263 0.1817701756954193)
      ( 2.637629508972168 0.8621655702590942 0.18742047250270844)
      ( 2.646381378173828 0.862301766872406 0.19310398399829865)
      ( 2.6553170680999756 0.8621422648429871 0.19890692830085754)
      ( 2.663809299468994 0.861710786819458 0.20442195236682892)
      ( 2.6725549697875977 0.8609803915023804 0.21010132133960724)
      ( 2.681297779083252 0.8599584102630615 0.215779110789299)
      ( 2.6899492740631104 0.8586575388908386 0.22139737010002136)
      ( 2.6982197761535645 0.8571418523788452 0.22676828503608704)
      ( 2.707365036010742 0.8551520705223083 0.23270732164382935)
      ( 2.7153215408325195 0.8531490564346313 0.23787425458431244)
      ( 2.723923683166504 0.8506936430931091 0.2434605062007904)
      ( 2.732330560684204 0.84799724817276 0.24892017245292664)
      ( 2.7404932975769043 0.8450924158096313 0.2542210519313812)
      ( 2.7489285469055176 0.84178626537323 0.2596988081932068)
      ( 2.7570395469665527 0.8383072018623352 0.26496630907058716)
      ( 2.7655911445617676 0.8343111276626587 0.2705197334289551)
      ( 2.589202404022217 0.8600635528564453 0.2184627503156662)
      ( 2.586110830307007 0.8600635528564453 0.2279781848192215)
      ( 2.5847129821777344 0.8600782155990601 0.23277810215950012)
      ( 2.587608575820923 0.8600586652755737 0.22320227324962616)
      ( 2.7236180305480957 0.7990941405296326 0.25688180327415466)
      ( 2.7205276489257812 0.7990941405296326 0.2663923501968384)
      ( 2.717437505722046 0.7990941405296326 0.2759029269218445)
      ( 2.6194565296173096 0.7723634243011475 0.22613894939422607)
      ( 2.620016574859619 0.77251136302948 0.2246355563402176)
      ( 2.617575168609619 0.7720828056335449 0.23151101171970367)
      ( 2.617961883544922 0.7721107006072998 0.23036223649978638)
      ( 2.6164305210113525 0.7721048593521118 0.23506689071655273)
      ( 2.6171486377716064 0.7720720171928406 0.2328072041273117)
      ( 2.6150994300842285 0.7723633050918579 0.23954910039901733)
      ( 2.6156821250915527 0.7722154855728149 0.23753511905670166)
      ( 2.6143171787261963 0.7726593017578125 0.24239706993103027)
      ( 2.5843911170959473 0.8600828051567078 0.23393982648849487)
      ( 2.5840792655944824 0.8600873351097107 0.23509007692337036)
      ( 2.583472967147827 0.8600960969924927 0.2374049872159958)
      ( 2.5831618309020996 0.8601005673408508 0.2386361062526703)
      ( 2.5828590393066406 0.8601049184799194 0.23986448347568512)
      ( 2.582563877105713 0.8601092100143433 0.2410944551229477)
      ( 2.582274913787842 0.8601133227348328 0.24233093857765198)
      ( 2.581977128982544 0.8601175546646118 0.24364160001277924)
      ( 2.581685781478882 0.8601217865943909 0.2449628859758377)
      ( 2.5814034938812256 0.8601257801055908 0.24628229439258575)
      ( 2.581130266189575 0.8601296544075012 0.24760061502456665)
      ( 2.5805752277374268 0.8601375818252563 0.25041988492012024)
      ( 2.5800583362579346 0.860144853591919 0.2532474994659424)
      ( 2.579927444458008 0.8601466417312622 0.2540002763271332)
      ( 2.5797979831695557 0.8601484894752502 0.2547602653503418)
      ( 2.5795488357543945 0.860152006149292 0.2562735974788666)
      ( 2.5793097019195557 0.8601553440093994 0.2577950358390808)
      ( 2.5790817737579346 0.8601585030555725 0.2593171000480652)
      ( 2.5788519382476807 0.8601616621017456 0.26093441247940063)
      ( 2.5786328315734863 0.8601647019386292 0.2625672519207001)
      ( 2.5782337188720703 0.8601701259613037 0.26582854986190796)
      ( 2.5780439376831055 0.8601726293563843 0.26754680275917053)
      ( 2.577867031097412 0.8601750135421753 0.2692809998989105)
      ( 2.5775561332702637 0.8601790070533752 0.2727462947368622)
      ( 2.5774171352386475 0.8601807951927185 0.27454841136932373)
      ( 2.5772926807403564 0.8601822853088379 0.2763643264770508)
      ( 2.5770912170410156 0.8601846098899841 0.2799859046936035)
      ( 2.5859427452087402 0.8610019087791443 0.2804498076438904)
      ( 2.5966827869415283 0.8617430925369263 0.2810126543045044)
      ( 2.6070430278778076 0.8621655702590942 0.2815555930137634)
      ( 2.617464065551758 0.862301766872406 0.28210175037384033)
      ( 2.6281042098999023 0.8621422648429871 0.2826593816280365)
      ( 2.638216257095337 0.861710786819458 0.2831893265247345)
      ( 2.648629903793335 0.8609803915023804 0.283735066652298)
      ( 2.6590402126312256 0.8599584102630615 0.2842806577682495)
      ( 2.669341802597046 0.8586575388908386 0.284820556640625)
      ( 2.679189682006836 0.8571418523788452 0.2853366732597351)
      ( 2.6900794506073 0.8551520705223083 0.2859073579311371)
      ( 2.6995532512664795 0.8531490564346313 0.2864038646221161)
      ( 2.7097959518432617 0.8506936430931091 0.28694066405296326)