/*--------------------------------*- C++ -*----------------------------------*\
  =========                 |
  \\      /  F ield         | OpenFOAM: The Open Source CFD Toolbox
   \\    /   O peration     | Website:  https://openfoam.org
    \\  /    A nd           | Version:  7
     \\/     M anipulation  |
\*---------------------------------------------------------------------------*/
FoamFile
{
    version     2.0;
    format      ascii;
    class       featureEdgeMesh;
    location    "constant/triSurface";
    object      ruotaant.eMesh;
}
// * * * * * * * * * * * * * * * * * * * * * * * * * * * * * * * * * * * * * //


// points:

1416
(
(0.07160980254 0.7959330082 0.2464829981)
(0.08484970033 0.7959330082 0.2872309983)
(-0.01441940013 0.7959330082 0.2151080072)
(0.0284256991 0.7959330082 0.2151080072)
(-0.07084339857 0.7959330082 0.2872309983)
(-0.05760360137 0.7959330082 0.2464829981)
(-0.01968619972 0.7959330082 0.363180995)
(-0.05434859917 0.7959330082 0.3379969895)
(0.06835480034 0.7959330082 0.3379969895)
(0.0336924009 0.7959330082 0.363180995)
(3.571269989 0.706058979 0.2738049924)
(3.571269989 0.7060610056 0.2738089859)
(2.792399883 0.5508149862 1.231050014)
(2.792069912 0.5526390076 1.231950045)
(-0.04470650107 0.8570190072 0.07995170355)
(-0.04654910043 0.8570209742 0.08041170239)
(0.2161079943 0.856926024 0.2350900024)
(0.2230959982 0.8570230007 0.2799859941)
(0.2140759975 0.8569020033 0.2279759943)
(0.1845220029 0.7690579891 0.23759)
(0.1810069978 0.7691389918 0.2268960029)
(0.1877119988 0.8570230007 0.171085)
(0.1615190059 0.7721970081 0.1880950034)
(0.1629890054 0.7721440196 0.1903609931)
(0.1760260016 0.7705119848 0.2145610005)
(0.1919070035 0.7721970081 0.2816199958)
(0.1915799975 0.7720710039 0.2761839926)
(0.191091001 0.7718650103 0.2707319856)
(0.1880889982 0.7705129981 0.2516919971)
(0.01932789944 0.856926024 0.07415740192)
(0.04040279984 0.8569890261 0.07631479949)
(0.06425560266 0.8570230007 0.08138860017)
(-0.002996890107 0.8569170237 0.07404919714)
(0.002001089975 0.8569020033 0.07389540225)
(0.01200409979 0.8569020033 0.07389540225)
(-0.01780110039 0.8569669724 0.0751774013)
(-0.04840390012 0.8570219874 0.08089239895)
(-0.05024940148 0.8570230007 0.08138860017)
(-0.04216590151 0.7721970081 0.1115569994)
(-0.03955839947 0.7721449733 0.1108589992)
(0.04555600137 0.771863997 0.1089660004)
(-0.1942500025 0.8569279909 0.2110159993)
(-0.1737059951 0.8570230007 0.171085)
(-0.1969790012 0.8569020033 0.2184630036)
(-0.1710820049 0.7692019939 0.2395489961)
(-0.2090899944 0.8570230007 0.2799859941)
(-0.1779009998 0.7721970081 0.2816199958)
(-0.1291690022 0.8569219708 0.4579139948)
(-0.1436139941 0.856983006 0.4452010095)
(-0.1619340032 0.8570230007 0.4251179993)
(-0.1159740016 0.8569020033 0.467772007)
(-0.1200499982 0.8568969965 0.4648739994)
(-0.1240660027 0.8569020033 0.4618929923)
(-0.06929729879 0.8570230007 0.4924220145)
(-0.05810470134 0.7721970081 0.4632639885)
(-0.06062620133 0.7721440196 0.4622960091)
(-0.1376619935 0.7721970081 0.4054630101)
(-0.1341959983 0.7720710039 0.4096759856)
(-0.1305879951 0.771863997 0.4138079882)
(0.1233939976 0.8569279909 0.4721930027)
(0.08330360055 0.8570230007 0.4924220145)
(0.1299819946 0.8569020033 0.4677709937)
(0.1117039993 0.7690579891 0.4426349998)
(0.1476970017 0.8569430113 0.4541809857)
(0.175940007 0.8570230007 0.4251179993)
(0.1516679972 0.7721970081 0.4054630101)
(0.1473190039 0.7720270157 0.4107109904)
(0.1445939988 0.771863997 0.4138079882)
(0.08222989738 0.771863997 0.4591169953)
(-0.01440849993 0.7955219746 0.3622640073)
(0.03279099986 0.7959330082 0.3608320057)
(0.06639999896 0.7959330082 0.3364140093)
(-0.05239370093 0.7959330082 0.3364140093)
(-0.01878469996 0.7959330082 0.3608320057)
(-0.05549399927 0.7959330082 0.247852996)
(-0.06833150238 0.7959330082 0.2873629928)
(0.02777460031 0.7959330082 0.2175379992)
(-0.01376840007 0.7959330082 0.2175379992)
(0.08193899691 0.8277080059 0.2873840034)
(0.08233769983 0.7959330082 0.2873629928)
(0.06950020045 0.7959330082 0.247852996)
(-0.03614170104 0.8571519852 0.07784610242)
(2.792380095 0.5507460237 1.23100996)
(2.792380095 0.5508069992 1.231060028)
(2.792380095 0.5507749915 1.231029987)
(2.792380095 0.5507439971 1.23100996)
(2.792370081 0.5508059859 1.231060028)
(2.792380095 0.5507280231 1.230999947)
(2.792380095 0.5507289767 1.230999947)
(2.792399883 0.5508180261 1.231050014)
(2.792360067 0.5510590076 1.231230021)
(2.792289972 0.5515729785 1.231539965)
(2.792490005 0.5508540273 1.23100996)
(0.2157970071 0.8569210172 0.2339400053)
(0.215474993 0.8569170237 0.2327779979)
(0.2142450064 0.8578400016 0.2804499865)
(0.2035049945 0.8585820198 0.2810130119)
(0.1931450069 0.8590040207 0.2815560102)
(0.1827230006 0.8591399789 0.2821019888)
(0.1720830053 0.8589810133 0.2826589942)
(0.1619710028 0.8585489988 0.2831889987)
(0.1515579969 0.8578190207 0.283735007)
(0.1411470026 0.8567969799 0.2842809856)
(0.1308459938 0.8554959893 0.2848210037)
(0.1209980026 0.8539800048 0.2853370011)
(0.110108003 0.8519909978 0.2859070003)
(0.1006340012 0.8499879837 0.2864040136)
(0.09039159864 0.8475319743 0.2869409919)
(0.08038099855 0.8448359966 0.2874650061)
(0.07066159695 0.8419309855 0.2879750133)
(0.06061770022 0.8386250138 0.2885009944)
(0.05095940083 0.8351460099 0.2890070081)
(0.04077690095 0.8311499953 0.2895410061)
(0.08275009692 0.7959330082 0.2759029865)
(0.07965999842 0.7959330082 0.2663919926)
(0.07656980306 0.7959330082 0.2568820119)
(0.1802790016 0.8578400016 0.1759130061)
(0.1712590009 0.8585820198 0.1817699969)
(0.1625580043 0.8590040207 0.1874199957)
(0.1538060009 0.8591399789 0.1931039989)
(0.1448709965 0.8589810133 0.1989070028)
(0.1363780051 0.8585489988 0.2044219971)
(0.1276330054 0.8578190207 0.2101009935)
(0.1188900024 0.8567969799 0.2157790065)
(0.1102380008 0.8554959893 0.2213969976)
(0.1019679978 0.8539800048 0.2267680019)
(0.09282249957 0.8519909978 0.2327069938)
(0.08486620337 0.8499879837 0.2378740013)
(0.07626409829 0.8475319743 0.2434609979)
(0.06785690039 0.8448359966 0.2489199936)
(0.05969430134 0.8419309855 0.2542209923)
(0.0512593016 0.8386250138 0.259698987)
(0.04314810038 0.8351460099 0.264966011)
(0.03459649906 0.8311499953 0.2705200016)
(0.07669010013 0.8047850132 0.2431840003)
(0.08272960037 0.8119369745 0.2392619997)
(0.08994659781 0.817776978 0.2345750034)
(0.09777580202 0.821837008 0.2294909954)
(0.1063370034 0.8241569996 0.2239309996)
(0.1155700013 0.8244799972 0.2179349959)
(0.1244409978 0.8226950169 0.2121739984)
(0.132419005 0.8191570044 0.2069929987)
(0.139891997 0.8137949705 0.2021400034)
(0.1462669969 0.8070240021 0.1979999989)
(0.1516250074 0.7987300158 0.194520995)
(0.1557430029 0.7888720036 0.1918459982)
(0.1589030027 0.7794110179 0.189794004)
(0.07443059981 0.7959330082 0.2515200078)
(0.09089890122 0.8047850132 0.286913991)
(0.09809029847 0.8119369745 0.2865369916)
(0.1066839993 0.817776978 0.2860870063)
(0.1160060018 0.821837008 0.2855980098)
(0.1262010038 0.8241569996 0.2850640118)
(0.137195006 0.8244799972 0.2844879925)
(0.1477569938 0.8226950169 0.2839339972)
(0.1572570056 0.8191570044 0.2834360003)
(0.1661559939 0.8137949705 0.2829700112)
(0.1737460047 0.8070240021 0.2825720012)
(0.1801259965 0.7987300158 0.2822380066)
(0.1850299984 0.7888720036 0.2819809914)
(0.1887930036 0.7794110179 0.281783998)
(0.08417110145 0.7959330082 0.2814979851)
(0.01700310037 0.8569170237 0.07404919714)
(0.06196150184 0.8578400016 0.08995019644)
(0.05917799845 0.8585820198 0.1003390029)
(0.05649289861 0.8590040207 0.1103599966)
(0.05379199982 0.8591399789 0.1204390004)
(0.05103439838 0.8589810133 0.1307310015)
(0.04841360077 0.8585489988 0.1405120045)
(0.04571469873 0.8578190207 0.1505839974)
(0.04301650077 0.8567969799 0.1606539935)
(0.0403467007 0.8554959893 0.1706179976)
(0.03779440001 0.8539800048 0.1801429987)
(0.03497200087 0.8519909978 0.1906760037)
(0.03251669928 0.8499879837 0.1998399943)
(0.02986199968 0.8475319743 0.2097470015)
(0.02726750076 0.8448359966 0.2194299996)
(0.02474850044 0.8419309855 0.2288309932)
(0.02214529924 0.8386250138 0.2385459989)
(0.01964209974 0.8351460099 0.2478879988)
(0.01700310037 0.8311499953 0.2577370107)
(0.01700310037 0.7959330082 0.2136040032)
(0.007003109902 0.7959330082 0.2136040032)
(-0.002996890107 0.7959330082 0.2136040032)
(-0.04795530066 0.8578400016 0.08995019644)
(-0.045171801 0.8585820198 0.1003390029)
(-0.04248660058 0.8590040207 0.1103599966)
(-0.03978579864 0.8591399789 0.1204390004)
(-0.03702810034 0.8589810133 0.1307310015)
(-0.03440739959 0.8585489988 0.1405120045)
(-0.0317084007 0.8578190207 0.1505839974)
(-0.02901029959 0.8567969799 0.1606539935)
(-0.0263404008 0.8554959893 0.1706179976)
(-0.02378810011 0.8539800048 0.1801429987)
(-0.02096579969 0.8519909978 0.1906760037)
(-0.01851039939 0.8499879837 0.1998399943)
(-0.01585580036 0.8475319743 0.2097470015)
(-0.01326119993 0.8448359966 0.2194299996)
(-0.01074219961 0.8419309855 0.2288309932)
(-0.008139099926 0.8386250138 0.2385459989)
(-0.005635930225 0.8351460099 0.2478879988)
(-0.002996890107 0.8311499953 0.2577370107)
(-0.01598720066 0.8047850132 0.2092570066)
(-0.01785109937 0.8119369745 0.2023009956)
(-0.02007829957 0.817776978 0.1939889938)
(-0.02249439992 0.821837008 0.1849720031)
(-0.0251365006 0.8241569996 0.1751109958)
(-0.02798580006 0.8244799972 0.1644770056)
(-0.03072340041 0.8226950169 0.154260993)
(-0.03318560123 0.8191570044 0.1450719982)
(-0.0354918018 0.8137949705 0.1364649981)
(-0.03745900095 0.8070240021 0.1291230023)
(-0.03911260143 0.7987300158 0.1229519993)
(-0.0403835997 0.7888720036 0.1182079986)
(-0.04135869816 0.7794110179 0.1145690009)
(-0.008757449687 0.7959330082 0.2139820009)
(0.02999350056 0.8047850132 0.2092570066)
(0.03185730055 0.8119369745 0.2023009956)
(0.03408449888 0.817776978 0.1939889938)
(0.03650059924 0.821837008 0.1849720031)
(0.03914279863 0.8241569996 0.1751109958)
(0.04199210182 0.8244799972 0.1644770056)
(0.04472960159 0.8226950169 0.154260993)
(0.04719179869 0.8191570044 0.1450719982)
(0.04949809983 0.8137949705 0.1364649981)
(0.05146529898 0.8070240021 0.1291230023)
(0.05311879888 0.7987300158 0.1229519993)
(0.05438980088 0.7888720036 0.1182079986)
(0.05536499992 0.7794110179 0.1145690009)
(0.05617209896 0.7721970081 0.1115569994)
(0.02276369929 0.7959330082 0.2139820009)
(-0.1952880025 0.8569170237 0.2137569934)
(-0.1662719995 0.8578400016 0.1759130061)
(-0.1572529972 0.8585820198 0.1817699969)
(-0.1485520005 0.8590040207 0.1874199957)
(-0.1397999972 0.8591399789 0.1931039989)
(-0.1308639944 0.8589810133 0.1989070028)
(-0.1223720014 0.8585489988 0.2044219971)
(-0.1136260033 0.8578190207 0.2101009935)
(-0.1048830003 0.8567969799 0.2157790065)
(-0.09623210132 0.8554959893 0.2213969976)
(-0.08796159923 0.8539800048 0.2267680019)
(-0.07881630212 0.8519909978 0.2327069938)
(-0.07085990161 0.8499879837 0.2378740013)
(-0.06225780025 0.8475319743 0.2434609979)
(-0.05385069922 0.8448359966 0.2489199936)
(-0.04568810016 0.8419309855 0.2542209923)
(-0.03725299984 0.8386250138 0.259698987)
(-0.02914180048 0.8351460099 0.264966011)
(-0.02059029974 0.8311499953 0.2705200016)
(-0.0625635013 0.7959330082 0.2568820119)
(-0.06565369666 0.7959330082 0.2663919926)
(-0.06874389946 0.7959330082 0.2759029865)
(-0.2002390027 0.8578400016 0.2804499865)
(-0.1894980073 0.8585820198 0.2810130119)
(-0.1791380048 0.8590040207 0.2815560102)
(-0.1687169969 0.8591399789 0.2821019888)
(-0.1580770016 0.8589810133 0.2826589942)
(-0.1479649991 0.8585489988 0.2831889987)
(-0.1375519931 0.8578190207 0.283735007)
(-0.1271409988 0.8567969799 0.2842809856)
(-0.1168399975 0.8554959893 0.2848210037)
(-0.1069919989 0.8539800048 0.2853370011)
(-0.09610210359 0.8519909978 0.2859070003)
(-0.08662810177 0.8499879837 0.2864040136)
(-0.07638540119 0.8475319743 0.2869409919)
(-0.0663748011 0.8448359966 0.2874650061)
(-0.05665529892 0.8419309855 0.2879750133)
(-0.04661139846 0.8386250138 0.2885009944)
(-0.03695319965 0.8351460099 0.2890070081)
(-0.02677059919 0.8311499953 0.2895410061)
(-0.07689259946 0.8047850132 0.286913991)
(-0.08408399671 0.8119369745 0.2865369916)
(-0.09267749637 0.817776978 0.2860870063)
(-0.1019999981 0.821837008 0.2855980098)
(-0.1121940017 0.8241569996 0.2850640118)
(-0.1231879964 0.8244799972 0.2844879925)
(-0.1337510049 0.8226950169 0.2839339972)
(-0.1432510018 0.8191570044 0.2834360003)
(-0.1521490067 0.8137949705 0.2829700112)
(-0.159740001 0.8070240021 0.2825720012)
(-0.1661199927 0.7987300158 0.2822380066)
(-0.1710239947 0.7888720036 0.2819809914)
(-0.1747860014 0.7794110179 0.281783998)
(-0.07016489655 0.7959330082 0.2814979851)
(-0.06268379837 0.8047850132 0.2431840003)
(-0.06872329861 0.8119369745 0.2392619997)
(-0.07594040036 0.817776978 0.2345750034)
(-0.08376950026 0.821837008 0.2294909954)
(-0.09233099967 0.8241569996 0.2239309996)
(-0.1015639976 0.8244799972 0.2179349959)
(-0.1104350016 0.8226950169 0.2121739984)
(-0.1184130013 0.8191570044 0.2069929987)
(-0.1258859932 0.8137949705 0.2021400034)
(-0.1322609931 0.8070240021 0.1979999989)
(-0.1376190037 0.7987300158 0.194520995)
(-0.1417369992 0.7888720036 0.1918459982)
(-0.144896999 0.7794110179 0.189794004)
(-0.1475130022 0.7721970081 0.1880950034)
(-0.06042430177 0.7959330082 0.2515200078)
(-0.1280200034 0.8569170237 0.458829999)
(-0.1550460011 0.8578400016 0.419539988)
(-0.146687001 0.8585820198 0.4127719998)
(-0.1386249959 0.8590040207 0.4062429965)
(-0.1305149943 0.8591399789 0.3996759951)
(-0.1222350001 0.8589810133 0.3929699957)
(-0.1143660024 0.8585489988 0.386597991)
(-0.1062619984 0.8578190207 0.3800359964)
(-0.09815999866 0.8567969799 0.3734749854)
(-0.09014330059 0.8554959893 0.3669829965)
(-0.08247960359 0.8539800048 0.3607769907)
(-0.07400509715 0.8519909978 0.3539150059)
(-0.06663239747 0.8499879837 0.3479439914)
(-0.05866140127 0.8475319743 0.3414900005)
(-0.05087099969 0.8448359966 0.3351809978)
(-0.04330720007 0.8419309855 0.3290559947)
(-0.03549090028 0.8386250138 0.3227260113)
(-0.02797470056 0.8351460099 0.3166399896)
(-0.02005049959 0.8311499953 0.3102230132)
(-0.04599149898 0.7959330082 0.3459280133)
(-0.02981109917 0.7959330082 0.3576830029)
(-0.06612090021 0.8578400016 0.4841470122)
(-0.06226669997 0.8585820198 0.4741069973)
(-0.05854880065 0.8590040207 0.4644219875)
(-0.05480910093 0.8591399789 0.4546790123)
(-0.0509908013 0.8589810133 0.4447320104)
(-0.04736199975 0.8585489988 0.4352790117)
(-0.04362500086 0.8578190207 0.4255439937)
(-0.03988910094 0.8567969799 0.4158110023)
(-0.03619230166 0.8554959893 0.4061810076)
(-0.03265830129 0.8539800048 0.3969739974)
(-0.02875039913 0.8519909978 0.3867940009)
(-0.0253506992 0.8499879837 0.3779369891)
(-0.02167489938 0.8475319743 0.3683620095)
(-0.0180824995 0.8448359966 0.3590030074)
(-0.0145945996 0.8419309855 0.3499169946)
(-0.01099019963 0.8386250138 0.340526998)
(-0.007524299901 0.8351460099 0.331497997)
(-0.00387018011 0.8311499953 0.3219789863)
(-0.02185700089 0.8047850132 0.3688359857)
(-0.02443769947 0.8119369745 0.3755590022)
(-0.02752150036 0.817776978 0.383592993)
(-0.03086699918 0.821837008 0.3923079967)
(-0.03452530131 0.8241569996 0.4018380046)
(-0.0384705998 0.8244799972 0.4121159911)
(-0.04226110131 0.8226950169 0.4219909906)
(-0.0456704013 0.8191570044 0.4308719933)
(-0.04886360094 0.8137949705 0.4391910136)
(-0.05158749968 0.8070240021 0.4462870061)
(-0.05387699977 0.7987300158 0.4522509873)
(-0.05563680083 0.7888720036 0.4568359852)
(-0.05698709935 0.7794110179 0.4603529871)
(-0.02492880076 0.7959330082 0.3607639968)
(-0.05905620009 0.8047850132 0.3418090045)
(-0.06465259939 0.8119369745 0.3463410139)
(-0.07134020329 0.817776978 0.35175699)
(-0.07859490067 0.821837008 0.3576309979)
(-0.0865283981 0.8241569996 0.3640559912)
(-0.09508399665 0.8244799972 0.370983988)
(-0.1033039987 0.8226950169 0.3776400089)
(-0.1106970012 0.8191570044 0.3836269975)
(-0.117622003 0.8137949705 0.3892349899)
(-0.1235290021 0.8070240021 0.3940179944)
(-0.1284939945 0.7987300158 0.3980390131)
(-0.132310003 0.7888720036 0.4011290073)
(-0.1352380067 0.7794110179 0.4034999907)
(-0.05042989925 0.7959330082 0.3422360122)
(0.1246249974 0.8569219708 0.4713920057)
(0.1258459985 0.8569170237 0.4705860019)
(0.08012709767 0.8578400016 0.4841470122)
(0.07627289742 0.8585820198 0.4741069973)
(0.07255510241 0.8590040207 0.4644219875)
(0.06881540269 0.8591399789 0.4546790123)
(0.06499709934 0.8589810133 0.4447320104)
(0.06136820093 0.8585489988 0.4352790117)
(0.05763119832 0.8578190207 0.4255439937)
(0.05389529839 0.8567969799 0.4158110023)
(0.05019849911 0.8554959893 0.4061810076)
(0.04666449875 0.8539800048 0.3969739974)
(0.04275669903 0.8519909978 0.3867940009)
(0.03935689852 0.8499879837 0.3779369891)
(0.03568119928 0.8475319743 0.3683620095)
(0.03208870068 0.8448359966 0.3590030074)
(0.02860080078 0.8419309855 0.3499169946)
(0.02499650046 0.8386250138 0.340526998)
(0.02153060026 0.8351460099 0.331497997)
(0.01787650026 0.8311499953 0.3219789863)
(0.04381730035 0.7959330082 0.3576830029)
(0.05999770015 0.7959330082 0.3459280133)
(0.1690520048 0.8578400016 0.419539988)
(0.1606940031 0.8585820198 0.4127719998)
(0.1526309997 0.8590040207 0.4062429965)
(0.144520998 0.8591399789 0.3996759951)
(0.1362410039 0.8589810133 0.3929699957)
(0.1283719987 0.8585489988 0.386597991)
(0.1202680022 0.8578190207 0.3800359964)
(0.1121660024 0.8567969799 0.3734749854)
(0.1041499972 0.8554959893 0.3669829965)
(0.09648580104 0.8539800048 0.3607769907)
(0.08801139891 0.8519909978 0.3539150059)
(0.08063869923 0.8499879837 0.3479439914)
(0.07266759872 0.8475319743 0.3414900005)
(0.06487719715 0.8448359966 0.3351809978)
(0.05731340125 0.8419309855 0.3290559947)
(0.04949710146 0.8386250138 0.3227260113)
(0.04198100045 0.8351460099 0.3166399896)
(0.03405680135 0.8311499953 0.3102230132)
(0.07306239754 0.8047850132 0.3418090045)
(0.07865879685 0.8119369745 0.3463410139)
(0.08534640074 0.817776978 0.35175699)
(0.09260120243 0.821837008 0.3576309979)
(0.1005349979 0.8241569996 0.3640559912)
(0.1090900004 0.8244799972 0.370983988)
(0.1173100024 0.8226950169 0.3776400089)
(0.1247029975 0.8191570044 0.3836269975)
(0.1316280067 0.8137949705 0.3892349899)
(0.1375350058 0.8070240021 0.3940179944)
(0.1424999982 0.7987300158 0.3980390131)
(0.1463160068 0.7888720036 0.4011290073)
(0.1492439955 0.7794110179 0.4034999907)
(0.06443619728 0.7959330082 0.3422360122)
(0.03586319834 0.8047850132 0.3688359857)
(0.03844390064 0.8119369745 0.3755590022)
(0.04152780026 0.817776978 0.383592993)
(0.04487320036 0.821837008 0.3923079967)
(0.04853159934 0.8241569996 0.4018380046)
(0.05247690156 0.8244799972 0.4121159911)
(0.05626729876 0.8226950169 0.4219909906)
(0.05967659876 0.8191570044 0.4308719933)
(0.06286989897 0.8137949705 0.4391910136)
(0.06559369713 0.8070240021 0.4462870061)
(0.06788320094 0.7987300158 0.4522509873)
(0.06964310259 0.7888720036 0.4568359852)
(0.0709932968 0.7794110179 0.4603529871)
(0.07211089879 0.7721970081 0.4632639885)
(0.0389350988 0.7959330082 0.3607639968)
(0.007003109902 0.8344830275 0.3558149934)
(0.01672410034 0.8344830275 0.3550930023)
(0.007003109902 0.8283010125 0.364681989)
(0.01803380065 0.8283010125 0.3638629913)
(0.007003109902 0.7621390224 0.3639700115)
(0.01792860031 0.7621390224 0.3631590009)
(0.007003109902 0.7544370294 0.3564740121)
(0.01682139933 0.7544370294 0.3557449877)
(0.02728370018 0.7621390224 0.3611359894)
(0.02522839978 0.7544370294 0.3539269865)
(0.03650010005 0.7621390224 0.3578349948)
(0.03351069987 0.7544370294 0.3509599864)
(0.04579110071 0.7621390224 0.3529849946)
(0.04186009988 0.7544370294 0.3466019928)
(0.05303499848 0.7621390224 0.347902)
(0.04836989939 0.7544370294 0.3420340121)
(0.0598311983 0.7621390224 0.3417760134)
(0.05447740108 0.7544370294 0.3365289867)
(0.06611149758 0.7621390224 0.3344720006)
(0.06012130156 0.7544370294 0.3299649954)
(0.07134159654 0.7621390224 0.3264989853)
(0.06482130289 0.7544370294 0.3228000104)
(0.06424800307 0.8344830275 0.3224740028)
(0.06799270213 0.8344830275 0.3147349954)
(0.07196109742 0.8283010125 0.326849997)
(0.07621040195 0.8283010125 0.3180679977)
(0.07555039972 0.7621390224 0.3177999854)
(0.06860350072 0.7544370294 0.3149830103)
(0.07084160298 0.8344830275 0.3060069978)
(0.07944309711 0.8283010125 0.3081640005)
(0.07875219733 0.7621390224 0.307990998)
(0.07148080319 0.7544370294 0.3061670065)
(0.08052670211 0.7621390224 0.2981170118)
(0.07307550311 0.7544370294 0.2972939909)
(0.08123459667 0.8283010125 0.2981950045)
(0.08163040131 0.8283010125 0.2928679883)
(0.08093269914 0.7621390224 0.2875509858)
(0.07344040275 0.7544370294 0.2877990007)
(0.07972829789 0.7621390224 0.2764860094)
(0.0723579973 0.7544370294 0.2778550088)
(0.07742030174 0.7621390224 0.2673499882)
(0.07028389722 0.7544370294 0.2696459889)
(0.07378319651 0.7621390224 0.2581880093)
(0.06701540202 0.7544370294 0.2614119947)
(0.06897559762 0.7621390224 0.2496140003)
(0.0626949966 0.7544370294 0.2537069917)
(0.06349869817 0.7621390224 0.2422520071)
(0.05777329952 0.7544370294 0.2470909953)
(0.05654869974 0.7621390224 0.2350739986)
(0.05152760074 0.7544370294 0.2406409979)
(0.05108610168 0.8344830275 0.2411299944)
(0.04443790019 0.8344830275 0.2358690053)
(0.05702580139 0.8283010125 0.2345460057)
(0.04948170111 0.8283010125 0.2285750061)
(0.04907669872 0.7621390224 0.2291609943)
(0.04481270164 0.7544370294 0.235326007)
(0.03768989816 0.8344830275 0.2317769974)
(0.04182460159 0.8283010125 0.223931998)
(0.04149259999 0.7621390224 0.2245620042)
(0.03799720109 0.7544370294 0.2311940044)
(0.03278750181 0.7621390224 0.2206690013)
(0.03017440066 0.7544370294 0.2276950032)
(0.02256009914 0.7621390224 0.2176840007)
(0.02098350041 0.7544370294 0.2250130028)
(0.01260950044 0.7621390224 0.2162429988)
(0.0120412996 0.7544370294 0.2237170041)
(0.001616630005 0.7621390224 0.2162259966)
(0.002162470017 0.7544370294 0.223702997)
(-0.008849370293 0.7621390224 0.2177480012)
(-0.007242800202 0.7544370294 0.2250709981)
(-0.01817660034 0.7621390224 0.2204470038)
(-0.01562479977 0.7544370294 0.2274959981)
(-0.02760970034 0.7621390224 0.2246280015)
(-0.02410189994 0.7544370294 0.2312529981)
(-0.02379349992 0.8344830275 0.2318349928)
(-0.03046550043 0.8344830275 0.2358919978)
(-0.0279430002 0.8283010125 0.2239979953)
(-0.03551390022 0.8283010125 0.228602007)
(-0.03510849923 0.7621390224 0.2291869968)
(-0.03084070049 0.7544370294 0.2353499979)
(-0.0370788984 0.8344830275 0.241128996)
(-0.04301840067 0.8283010125 0.2345450073)
(-0.0425413996 0.7621390224 0.2350730002)
(-0.03752040118 0.7544370294 0.2406399995)
(-0.04942990094 0.7621390224 0.2421779931)
(-0.04371080175 0.7544370294 0.2470249981)
(-0.05497379974 0.7621390224 0.2496210039)
(-0.0486928001 0.7544370294 0.2537130117)
(-0.05976099893 0.7621390224 0.2581540048)
(-0.05299489945 0.7544370294 0.2613820136)
(-0.06315480173 0.7621390224 0.2665590048)
(-0.05604470149 0.7544370294 0.2689349949)
(-0.06572599709 0.7621390224 0.2765069902)
(-0.05835539848 0.7544370294 0.2778739929)
(-0.06691250205 0.7621390224 0.2871580124)
(-0.05942159891 0.7544370294 0.2874459922)
(-0.06654720008 0.7621390224 0.2978700101)
(-0.05909340084 0.7544370294 0.2970719934)
(-0.06460790336 0.7621390224 0.3085330129)
(-0.05735050142 0.7544370294 0.3066549897)
(-0.05671240017 0.8344830275 0.3064889908)
(-0.05405350029 0.8344830275 0.3145700097)
(-0.06529729813 0.8283010125 0.3087109923)
(-0.06228020042 0.8283010125 0.3178800046)
(-0.06161940098 0.7621390224 0.3176139891)
(-0.05466489866 0.7544370294 0.3148159981)
(-0.05044279993 0.8344830275 0.3221180141)
(-0.05818289891 0.8283010125 0.3264450133)
(-0.05756120011 0.7621390224 0.326097995)
(-0.05101799965 0.7544370294 0.3224389851)
(-0.05200869963 0.7621390224 0.3346000016)
(-0.04602830112 0.7544370294 0.3300800025)
(-0.04634710029 0.7621390224 0.341237992)
(-0.04094040021 0.7544370294 0.336044997)
(-0.03935210034 0.7621390224 0.3476440012)
(-0.03465420008 0.7544370294 0.341802001)
(-0.03136099875 0.7621390224 0.3532440066)
(-0.02747300081 0.7544370294 0.3468340039)
(-0.02298830077 0.7621390224 0.3576169908)
(-0.01994889975 0.7544370294 0.3507649899)
(-0.01401109993 0.7621390224 0.3609220088)
(-0.0118813999 0.7544370294 0.3537349999)
(-0.003773499979 0.7621390224 0.363180995)
(-0.002681340091 0.7544370294 0.3557650149)
(-0.002585330047 0.8344830275 0.3551119864)
(-0.003877260024 0.8283010125 0.3638859987)
(0.07255849987 0.7955219746 0.3271889985)
(0.02766730078 0.7955219746 0.362480998)
(-0.02385240048 0.7959330082 0.3587760031)
(-0.0587823987 0.7955219746 0.3267799914)
(-0.0679384023 0.7955219746 0.2980189919)
(-0.05049730092 0.7955219746 0.2412739992)
(-0.01865289919 0.7955219746 0.2191320062)
(0.03327529877 0.7955219746 0.2193579972)
(0.0645672977 0.7955219746 0.2413489968)
(0.08191730082 0.7955219746 0.2982699871)
(0.1779939979 0.7690529823 0.2191350013)
(0.1867000014 0.7690529823 0.2456330061)
(0.1672690064 0.771863997 0.197401002)
(0.1733279973 0.7703649998 0.2087869942)
(0.1894520074 0.7703649998 0.2588230073)
(0.05048939958 0.8571519852 0.0779158026)
(-0.007803780027 0.8571519852 0.07401040196)
(-0.03423770145 0.7719780207 0.1095589995)
(-0.01819450036 0.7703649998 0.1066299975)
(-0.01251939964 0.7705129981 0.1059390008)
(0.02652570046 0.7705129981 0.1059390008)
(0.03230800107 0.7703649998 0.1066439971)
(-0.1729689986 0.7690529823 0.2467619926)
(-0.1667249948 0.7692019939 0.2261389941)
(-0.1640080065 0.7690529823 0.2191839963)
(-0.1620189995 0.7705119848 0.2145610005)
(-0.1592050046 0.7703649998 0.2085479945)
(-0.1532630026 0.771863997 0.197401002)
(-0.1482509971 0.7721729875 0.1892250031)
(-0.1364579946 0.8571519852 0.4521409869)
(-0.08899430186 0.7690529823 0.4482530057)
(-0.09600710124 0.7692019939 0.4437809885)
(-0.06569830328 0.7719780207 0.4602180123)
(0.1048799977 0.7690529823 0.4470979869)
(0.1407849938 0.8571519852 0.4602150023)
(0.06559489667 0.8571519852 0.0815827027)
(0.05487050116 0.7721729875 0.1112029999)
(-0.1770849973 0.7718650103 0.2707319856)
(0.07337260246 0.7721729875 0.4627850056)
(2.792370081 0.5510630012 1.231230021)
(2.792469978 0.5511050224 1.231189966)
(2.792380095 0.5516089797 1.23150003)
(0.2167149931 0.8569350243 0.2374050021)
(0.2170259953 0.8569390178 0.2386360019)
(0.2173279971 0.8569430113 0.2398640066)
(0.2176239938 0.8569480181 0.2410939932)
(0.2179130018 0.8569520116 0.2423309982)
(0.2182109952 0.8569560051 0.2436420023)
(0.218502 0.8569599986 0.2449630052)
(0.2187840044 0.8569639921 0.2462819964)
(0.2190569937 0.8569679856 0.2476010025)
(0.2196120024 0.8569759727 0.2504200041)
(0.2201289982 0.856983006 0.2532469928)
(0.2202599943 0.856984973 0.2540000081)
(0.2203900069 0.8569869995 0.2547599971)
(0.2206390053 0.8569899797 0.2562740147)
(0.220878005 0.8569939733 0.257795006)
(0.2211059928 0.8569970131 0.2593170106)
(0.2213360071 0.8569999933 0.2609339952)
(0.2215549946 0.8570029736 0.2625670135)
(0.221954003 0.8570089936 0.2658289969)
(0.2221439928 0.8570110202 0.2675470114)
(0.2223210037 0.8570129871 0.2692809999)
(0.2226320058 0.8570179939 0.2727459967)
(0.2227710038 0.8570190072 0.2745479941)
(0.2228949964 0.8570209742 0.2763639987)
(0.2109850049 0.8569020033 0.2184630036)
(0.2092940062 0.8569170237 0.2137569934)
(0.212578997 0.8568969965 0.2232030034)
(0.1858710051 0.7694979906 0.2423969954)
(0.182246998 0.7689470053 0.2304250002)
(0.1830369979 0.7689110041 0.2328020036)
(0.1805720031 0.7692409754 0.2257090062)
(0.1796900034 0.7694979906 0.2233760059)
(0.2082560062 0.8569279909 0.2110159993)
(0.2079900056 0.8569309711 0.2103320062)
(0.2077219933 0.8569329977 0.209649995)
(0.2074539959 0.8569359779 0.2089740038)
(0.2071810067 0.8569380045 0.2082920074)
(0.2066249996 0.8569430113 0.2069260031)
(0.2060569972 0.8569480181 0.2055570036)
(0.2054809928 0.8569530249 0.2041960061)
(0.2048979998 0.856957972 0.2028439939)
(0.2045969963 0.8569599986 0.2021570057)
(0.2042970061 0.8569620252 0.2014770061)
(0.2036879957 0.8569669724 0.2001170069)
(0.2030719966 0.8569710255 0.1987670064)
(0.2024430037 0.856975019 0.1974159926)
(0.202124998 0.8569769859 0.1967400014)
(0.201801002 0.8569790125 0.1960600019)
(0.2011529952 0.856983006 0.1947160065)
(0.200492993 0.8569859862 0.1933719963)
(0.2001589984 0.8569880128 0.1927019954)
(0.1998219937 0.8569899797 0.1920299977)
(0.1984480023 0.8569959998 0.1893540025)
(0.1980970055 0.8569980264 0.1886830032)
(0.197743997 0.85699898 0.1880169958)
(0.1970320046 0.8570020199 0.1866880059)
(0.1963099986 0.8570050001 0.185363993)
(0.1959410012 0.8570060134 0.1846960038)
(0.1955740005 0.8570070267 0.1840369999)
(0.1940779984 0.8570119739 0.1814049929)
(0.193314001 0.8570140004 0.1800940037)
(0.1925390065 0.8570150137 0.1787859946)
(0.1909720004 0.8570190072 0.1762039959)
(0.1901749969 0.8570200205 0.1749220043)
(0.1893630028 0.8570209742 0.1736370027)
(0.1622579992 0.7721729875 0.1892250031)
(0.1644539982 0.7720710039 0.1926929951)
(0.175247997 0.7706859708 0.2128430009)
(0.1756400019 0.7706000209 0.2137040049)
(0.1767130047 0.7703480124 0.2161200047)
(0.1918410063 0.7721729875 0.2802729905)
(0.1917649955 0.7721449733 0.2789260149)
(0.1914740056 0.7720270157 0.2748290002)
(0.1913570017 0.7719780207 0.2734690011)
(0.1907359958 0.7717099786 0.2676019967)
(0.190538004 0.7716220021 0.2660300136)
(0.1903250068 0.7715269923 0.2644540071)
(0.1892160028 0.7710270286 0.2574709952)
(0.1893980056 0.7711099982 0.2585090101)
(0.188470006 0.7706869841 0.2535380125)
(0.02049149945 0.8569300175 0.07422120124)
(0.02165029943 0.856934011 0.07429110259)
(0.0228802003 0.8569380045 0.07437220216)
(0.02411260083 0.8569430113 0.07446079701)
(0.02533669956 0.8569470048 0.07455579937)
(0.02656980045 0.8569509983 0.0746589005)
(0.02787660062 0.8569549918 0.07477589697)
(0.02919049934 0.8569589853 0.07490190119)
(0.03050250001 0.8569629788 0.07503589988)
(0.03180740029 0.8569669724 0.0751774013)
(0.03321060166 0.8569710255 0.07533869892)
(0.03460599855 0.856975019 0.07550849766)
(0.03600019962 0.8569790125 0.07568749785)
(0.03739989921 0.8569819927 0.0758766979)
(0.04190839827 0.8569930196 0.07655090094)
(0.04340950027 0.8569959998 0.07679750025)
(0.04502769932 0.85699898 0.07707569748)
(0.04664919898 0.8570020199 0.07736749947)