/*--------------------------------*- C++ -*----------------------------------*\
| =========                 |                                                 |
| \\      /  F ield         | OpenFOAM: The Open Source CFD Toolbox           |
|  \\    /   O peration     | Version:  7                                     |
|   \\  /    A nd           | Web:      www.OpenFOAM.com                      |
|    \\/     M anipulation  |                                                 |
\*---------------------------------------------------------------------------*/
FoamFile
{
    version     2.0;
    format      ascii;
    class       classe;
    object      name;
}
    1406
    (
      ( 0.2157965749502182 0.8569213151931763 0.23393982648849487)
      ( 0.2154746651649475 0.8569166660308838 0.23277810215950012)
      ( 0.2161082774400711 0.8569258451461792 0.23509007692337036)
      ( 0.21671466529369354 0.8569345474243164 0.2374049872159958)
      ( 0.2170257568359375 0.8569390773773193 0.2386361062526703)
      ( 0.21732842922210693 0.8569434285163879 0.23986448347568512)
      ( 0.21762365102767944 0.8569477200508118 0.2410944551229477)
      ( 0.21791265904903412 0.8569518327713013 0.24233093857765198)
      ( 0.21821050345897675 0.8569560647010803 0.24364160001277924)
      ( 0.21850189566612244 0.8569602370262146 0.2449628859758377)
      ( 0.21878406405448914 0.8569642901420593 0.24628229439258575)
      ( 0.21905724704265594 0.8569681644439697 0.24760061502456665)
      ( 0.21961230039596558 0.8569760918617249 0.25041988492012024)
      ( 0.22012920677661896 0.8569833636283875 0.2532474994659424)
      ( 0.22026018798351288 0.8569851517677307 0.2540002763271332)
      ( 0.22038958966732025 0.8569869995117188 0.2547602653503418)
      ( 0.22063873708248138 0.8569904565811157 0.2562735974788666)
      ( 0.22087787091732025 0.8569938540458679 0.2577950358390808)
      ( 0.22110582888126373 0.856997013092041 0.2593171000480652)
      ( 0.22133569419384003 0.8570001721382141 0.26093441247940063)
      ( 0.22155481576919556 0.8570031523704529 0.2625672519207001)
      ( 0.22195397317409515 0.8570085763931274 0.26582854986190796)
      ( 0.22214367985725403 0.857011079788208 0.26754680275917053)
      ( 0.2223207950592041 0.857013463973999 0.2692809998989105)
      ( 0.2226315289735794 0.8570175170898438 0.2727462947368622)
      ( 0.22277051210403442 0.857019305229187 0.27454841136932373)
      ( 0.22289495170116425 0.8570207953453064 0.2763643264770508)
      ( 0.2230963110923767 0.8570231199264526 0.2799859046936035)
      ( 0.21424487233161926 0.8578404188156128 0.2804498076438904)
      ( 0.20350469648838043 0.8585816025733948 0.2810126543045044)
      ( 0.1931445300579071 0.8590040802955627 0.2815555930137634)
      ( 0.18272344768047333 0.8591402769088745 0.28210175037384033)
      ( 0.17208343744277954 0.8589807748794556 0.2826593816280365)
      ( 0.16197125613689423 0.8585492968559265 0.2831893265247345)
      ( 0.15155774354934692 0.8578189015388489 0.283735066652298)
      ( 0.1411472111940384 0.85679692029953 0.2842806577682495)
      ( 0.13084577023983002 0.8554960489273071 0.284820556640625)
      ( 0.12099786102771759 0.8539803624153137 0.2853366732597351)
      ( 0.11010827869176865 0.8519905805587769 0.2859073579311371)
      ( 0.10063439607620239 0.8499875664710999 0.2864038646221161)
      ( 0.0903915986418724 0.8475321531295776 0.28694066405296326)
      ( 0.08038098365068436 0.8448357582092285 0.28746530413627625)
      ( 0.07066155970096588 0.8419309258460999 0.28797465562820435)
      ( 0.06061767041683197 0.8386247754096985 0.2885010540485382)
      ( 0.05095940828323364 0.8351457118988037 0.2890072464942932)
      ( 0.040776852518320084 0.8311496376991272 0.2895408570766449)
      ( 0.21407611668109894 0.8569020628929138 0.22797571122646332)
      ( 0.21098528802394867 0.8569020628929138 0.21846330165863037)
      ( 0.2092943787574768 0.8569166660308838 0.2137569636106491)
      ( 0.2125791609287262 0.8568971753120422 0.22320303320884705)
      ( 0.0827501192688942 0.7959325909614563 0.2759029269218445)
      ( 0.07965997606515884 0.7959325909614563 0.2663923501968384)
      ( 0.07656976580619812 0.7959325909614563 0.25688180327415466)
      ( 0.1845216006040573 0.76905757188797 0.23759010434150696)
      ( 0.18587060272693634 0.769497811794281 0.24239706993103027)
      ( 0.182247132062912 0.7689470052719116 0.2304251343011856)
      ( 0.18303704261779785 0.7689105272293091 0.23280158638954163)
      ( 0.18057233095169067 0.7692410349845886 0.22570885717868805)
      ( 0.18100744485855103 0.7691389918327332 0.2268960177898407)
      ( 0.17969024181365967 0.769497811794281 0.22337591648101807)
      ( 0.20825622975826263 0.8569278717041016 0.21101634204387665)
      ( 0.20799005031585693 0.8569305539131165 0.21033154428005219)
      ( 0.2077222317457199 0.8569331765174866 0.2096496820449829)
      ( 0.2074541598558426 0.8569357991218567 0.20897386968135834)
      ( 0.20718078315258026 0.856938362121582 0.20829153060913086)
      ( 0.2066253125667572 0.8569434881210327 0.20692601799964905)
      ( 0.20605742931365967 0.8569484353065491 0.20555725693702698)
      ( 0.20548132061958313 0.8569532036781311 0.20419561862945557)
      ( 0.20489813387393951 0.8569578528404236 0.20284369587898254)
      ( 0.20459747314453125 0.856960117816925 0.20215654373168945)
      ( 0.20429742336273193 0.8569623231887817 0.20147742331027985)
      ( 0.20368768274784088 0.8569667339324951 0.2001165747642517)
      ( 0.2030717134475708 0.8569709658622742 0.1987674981355667)
      ( 0.2024429887533188 0.8569749593734741 0.1974155306816101)
      ( 0.2021246999502182 0.8569769263267517 0.19674047827720642)
      ( 0.20180077850818634 0.8569788932800293 0.19605965912342072)
      ( 0.2011527121067047 0.8569826483726501 0.19471615552902222)
      ( 0.20049285888671875 0.8569862842559814 0.19337233901023865)
      ( 0.2001592367887497 0.8569879531860352 0.19270196557044983)
      ( 0.19982165098190308 0.8569896817207336 0.192029669880867)
      ( 0.1984483003616333 0.8569961786270142 0.1893538236618042)
      ( 0.1980966180562973 0.8569976091384888 0.18868334591388702)
      ( 0.19774408638477325 0.8569991588592529 0.18801699578762054)
      ( 0.19703198969364166 0.8570019602775574 0.18668824434280396)
      ( 0.1963098794221878 0.8570045828819275 0.18536365032196045)
      ( 0.19594146311283112 0.8570058345794678 0.18469634652137756)
      ( 0.1955743432044983 0.8570070862770081 0.18403691053390503)
      ( 0.1940779983997345 0.857011616230011 0.1814049929380417)
      ( 0.1933140903711319 0.8570135831832886 0.1800941824913025)
      ( 0.1925393044948578 0.8570154905319214 0.17878641188144684)
      ( 0.19097180664539337 0.8570186495780945 0.17620407044887543)
      ( 0.19017450511455536 0.8570200204849243 0.1749216616153717)
      ( 0.18936285376548767 0.8570212125778198 0.1736368089914322)
      ( 0.18771234154701233 0.8570231199264526 0.1710851788520813)
      ( 0.1802786886692047 0.8578404188156128 0.17591263353824615)
      ( 0.1712588518857956 0.8585816025733948 0.1817701756954193)
      ( 0.1625581681728363 0.8590040802955627 0.18742047250270844)
      ( 0.15380632877349854 0.8591402769088745 0.19310398399829865)
      ( 0.1448706090450287 0.8589807748794556 0.19890692830085754)
      ( 0.13637816905975342 0.8585492968559265 0.20442195236682892)
      ( 0.12763269245624542 0.8578189015388489 0.21010132133960724)
      ( 0.1188897117972374 0.85679692029953 0.215779110789299)
      ( 0.11023834347724915 0.8554960489273071 0.22139737010002136)
      ( 0.10196783393621445 0.8539803624153137 0.22676828503608704)
      ( 0.09282250702381134 0.8519905805587769 0.23270732164382935)
      ( 0.08486615121364594 0.8499875664710999 0.23787425458431244)
      ( 0.07626409828662872 0.8475321531295776 0.2434605062007904)
      ( 0.06785693019628525 0.8448357582092285 0.24892017245292664)
      ( 0.059694331139326096 0.8419309258460999 0.2542210519313812)
      ( 0.051259271800518036 0.8386247754096985 0.2596988081932068)
      ( 0.043148066848516464 0.8351457118988037 0.26496630907058716)
      ( 0.03459649160504341 0.8311496376991272 0.2705197334289551)
      ( 0.07160980254411697 0.7959325909614563 0.24648301303386688)
      ( 0.07669006288051605 0.8047851920127869 0.24318385124206543)
      ( 0.08272961527109146 0.8119374513626099 0.23926174640655518)
      ( 0.08994659781455994 0.8177770972251892 0.23457498848438263)
      ( 0.09777575731277466 0.8218365907669067 0.22949068248271942)
      ( 0.1063372790813446 0.8241573572158813 0.22393076121807098)
      ( 0.11557018756866455 0.8244801759719849 0.21793484687805176)
      ( 0.12444079667329788 0.8226945400238037 0.212174192070961)
      ( 0.13241931796073914 0.8191574215888977 0.20699289441108704)
      ( 0.1398923397064209 0.8137951493263245 0.20213982462882996)
      ( 0.146266907453537 0.8070237040519714 0.19800011813640594)
      ( 0.15162493288516998 0.7987301349639893 0.19452060759067535)
      ( 0.15574346482753754 0.7888718247413635 0.19184601306915283)
      ( 0.15890325605869293 0.7794108390808105 0.18979398906230927)
      ( 0.16151873767375946 0.7721969485282898 0.18809548020362854)
      ( 0.07443059980869293 0.7959325909614563 0.2515198588371277)
      ( 0.16225774586200714 0.7721732258796692 0.18922489881515503)
      ( 0.16298949718475342 0.7721444964408875 0.1903613805770874)
      ( 0.1644544005393982 0.7720708250999451 0.19269269704818726)
      ( 0.16726891696453094 0.7718636989593506 0.19740143418312073)
      ( 0.1752481758594513 0.7706864476203918 0.21284295618534088)
      ( 0.1756402552127838 0.7706002593040466 0.2137037217617035)
      ( 0.17602550983428955 0.7705124616622925 0.21456092596054077)
      ( 0.17671294510364532 0.7703475952148438 0.21612048149108887)
      ( 0.09089892357587814 0.8047851920127869 0.28691408038139343)
      ( 0.08484967052936554 0.7959325909614563 0.28723111748695374)
      ( 0.09809033572673798 0.8119374513626099 0.28653720021247864)
      ( 0.10668383538722992 0.8177770972251892 0.2860868275165558)
      ( 0.11600616574287415 0.8218365907669067 0.2855982780456543)
      ( 0.1262006163597107 0.8241573572158813 0.2850639820098877)
      ( 0.13719451427459717 0.8244801759719849 0.2844878137111664)
      ( 0.14775708317756653 0.8226945400238037 0.28393426537513733)
      ( 0.15725725889205933 0.8191574215888977 0.2834363579750061)
      ( 0.16615569591522217 0.8137951493263245 0.28297004103660583)
      ( 0.17374609410762787 0.8070237040519714 0.2825722396373749)
      ( 0.18012598156929016 0.7987301349639893 0.2822378873825073)
      ( 0.1850300282239914 0.7888718247413635 0.28198087215423584)
      ( 0.18879254162311554 0.7794108390808105 0.28178369998931885)
      ( 0.1919068545103073 0.7721969485282898 0.28162047266960144)
      ( 0.08417114615440369 0.7959325909614563 0.2814981937408447)
      ( 0.19184088706970215 0.7721732258796692 0.2802733778953552)
      ( 0.19176506996154785 0.7721445560455322 0.27892571687698364)
      ( 0.19158026576042175 0.7720710635185242 0.27618393301963806)
      ( 0.19147387146949768 0.7720272541046143 0.2748294770717621)
      ( 0.19135692715644836 0.7719782590866089 0.2734687924385071)
      ( 0.19109100103378296 0.771864652633667 0.27073195576667786)
      ( 0.19073644280433655 0.7717097401618958 0.2676016092300415)
      ( 0.1905379593372345 0.7716219425201416 0.26602986454963684)
      ( 0.1903253197669983 0.7715273499488831 0.26445430517196655)
      ( 0.18921582400798798 0.7710270285606384 0.2574709951877594)
      ( 0.18939806520938873 0.7711097002029419 0.25850874185562134)
      ( 0.18808898329734802 0.7705132961273193 0.25169166922569275)
      ( 0.18846972286701202 0.7706872820854187 0.25353777408599854)
      ( 0.019327938556671143 0.8569256067276001 0.07415742427110672)
      ( 0.01700310967862606 0.8569166660308838 0.074049212038517)
      ( 0.02049151249229908 0.8569299578666687 0.07422119379043579)
      ( 0.021650264039635658 0.8569340705871582 0.07429108023643494)
      ( 0.022880245000123978 0.8569384813308716 0.07437223941087723)
      ( 0.024112606421113014 0.8569427728652954 0.07446076720952988)
      ( 0.02533666603267193 0.8569468855857849 0.07455584406852722)
      ( 0.026569759473204613 0.8569509387016296 0.07465885579586029)
      ( 0.027876583859324455 0.8569551110267639 0.07477594166994095)
      ( 0.0291905477643013 0.8569592237472534 0.07490190118551254)
      ( 0.030502498149871826 0.8569632172584534 0.07503590732812881)
      ( 0.031807370483875275 0.856967031955719 0.0751773864030838)
      ( 0.03321056813001633 0.856971025466919 0.07533865422010422)
      ( 0.034605953842401505 0.8569748401641846 0.07550845295190811)
      ( 0.036000240594148636 0.8569785356521606 0.0756874829530716)
      ( 0.03739989921450615 0.8569820523262024 0.07587669044733047)
      ( 0.04040282964706421 0.8569892644882202 0.07631475478410721)
      ( 0.0419083833694458 0.8569926023483276 0.07655094563961029)
      ( 0.04340954124927521 0.8569957613945007 0.07679751515388489)
      ( 0.045027706772089005 0.8569990992546082 0.07707572728395462)
      ( 0.04664916545152664 0.8570021390914917 0.07736747711896896)
      ( 0.04746117815375328 0.8570036292076111 0.07751847803592682)
      ( 0.0482712984085083 0.8570050597190857 0.07767239212989807)
      ( 0.04907616972923279 0.8570064306259155 0.077828548848629)
      ( 0.04988958314061165 0.8570077419281006 0.07798965275287628)
      ( 0.05337957292795181 0.8570128679275513 0.07871856540441513)
      ( 0.055122554302215576 0.8570151329040527 0.07910563796758652)
      ( 0.05685393884778023 0.8570170998573303 0.07950539886951447)
      ( 0.05871276557445526 0.8570190072059631 0.0799516886472702)
      ( 0.0605553537607193 0.8570206165313721 0.0804116502404213)
      ( 0.06241021305322647 0.8570220470428467 0.08089244365692139)
      ( 0.06425561755895615 0.8570231199264526 0.08138862252235413)
      ( 0.061961542814970016 0.8578404188156128 0.08995018154382706)
      ( 0.05917797610163689 0.8585816025733948 0.1003386378288269)
      ( 0.056492917239665985 0.8590040802955627 0.11035952717065811)
      ( 0.053791988641023636 0.8591402769088745 0.12043934315443039)
      ( 0.05103442072868347 0.8589807748794556 0.13073094189167023)
      ( 0.04841357097029686 0.8585492968559265 0.14051192998886108)
      ( 0.04571465775370598 0.8578189015388489 0.1505843997001648)
      ( 0.04301653802394867 0.85679692029953 0.16065402328968048)
      ( 0.040346674621105194 0.8554960489273071 0.17061810195446014)
      ( 0.03779437020421028 0.8539803624153137 0.18014349043369293)
      ( 0.034972041845321655 0.8519905805587769 0.1906764805316925)
      ( 0.032516658306121826 0.8499875664710999 0.19984011352062225)
      ( 0.029861995950341225 0.8475321531295776 0.20974743366241455)
      ( 0.027267513796687126 0.8448357582092285 0.21943022310733795)
      ( 0.02474847063422203 0.8419309258460999 0.22883139550685883)
      ( 0.02214532159268856 0.8386247754096985 0.23854635655879974)
      ( 0.019642146304249763 0.8351457118988037 0.24788829684257507)
      ( 0.01700310967862606 0.8311496376991272 0.2577373683452606)
      ( 0.014503169804811478 0.8569081425666809 0.07395946979522705)
      ( -4.985388368368149E-4 0.8569081425666809 0.07395952194929123)
      ( -0.002996891038492322 0.8569166660308838 0.074049212038517)
      ( 0.002001094864681363 0.8569020628929138 0.07389543205499649)
      ( 0.007003108970820904 0.8568971753120422 0.07384408265352249)
      ( 0.012004146352410316 0.8569020628929138 0.0738954171538353)
      ( 0.01700310967862606 0.7959325909614563 0.21360409259796143)
      ( 0.007003108970820904 0.7959325909614563 0.21360409259796143)
      ( -0.002996891038492322 0.7959325909614563 0.21360409259796143)
      ( 0.001993465470150113 0.7690575122833252 0.10497430711984634)
      ( 0.0032449301797896624 0.7689931988716125 0.10494469851255417)
      ( -0.00532165914773941 0.8569256067276001 0.07415742427110672)
      ( -0.006485294550657272 0.8569299578666687 0.07422119379043579)
      ( -0.007644046563655138 0.8569340705871582 0.07429108023643494)
      ( -0.00887402705848217 0.8569384813308716 0.07437223941087723)
      ( -0.010106388479471207 0.8569427728652954 0.07446076720952988)
      ( -0.01133038755506277 0.8569468855857849 0.07455584406852722)
      ( -0.012563541531562805 0.8569509387016296 0.07465885579586029)
      ( -0.013870364986360073 0.8569551110267639 0.07477594166994095)
      ( -0.015184329822659492 0.8569592237472534 0.07490190118551254)
      ( -0.016496218740940094 0.8569632172584534 0.07503590732812881)
      ( -0.017801091074943542 0.856967031955719 0.0751773864030838)
      ( -0.01920435018837452 0.856971025466919 0.07533865422010422)
      ( -0.020599735900759697 0.8569748401641846 0.07550845295190811)
      ( -0.02199402265250683 0.8569785356521606 0.0756874829530716)
      ( -0.023393681272864342 0.8569820523262024 0.07587669044733047)
      ( -0.026396609842777252 0.8569892644882202 0.07631475478410721)
      ( -0.027902163565158844 0.8569926023483276 0.07655094563961029)
      ( -0.0294033233076334 0.8569957613945007 0.07679751515388489)
      ( -0.031021427363157272 0.8569990992546082 0.07707572728395462)
      ( -0.03264288604259491 0.8570021390914917 0.07736747711896896)
      ( -0.033454958349466324 0.8570036292076111 0.07751847803592682)
      ( -0.034265078604221344 0.8570050597190857 0.07767239212989807)
      ( -0.03506994992494583 0.8570064306259155 0.077828548848629)
      ( -0.035883303731679916 0.8570077419281006 0.07798965275287628)
      ( -0.039373356848955154 0.8570128679275513 0.07871856540441513)
      ( -0.04111633822321892 0.8570151329040527 0.07910563796758652)
      ( -0.04284772276878357 0.8570170998573303 0.07950539886951447)
      ( -0.04470648616552353 0.8570190072059631 0.0799516886472702)
      ( -0.04654907435178757 0.8570206165313721 0.0804116502404213)
      ( -0.04840393364429474 0.8570220470428467 0.08089244365692139)
      ( -0.05024939402937889 0.8570231199264526 0.08138862252235413)
      ( -0.04795532673597336 0.8578404188156128 0.08995018154382706)
      ( -0.04517175629734993 0.8585816025733948 0.1003386378288269)
      ( -0.04248663783073425 0.8590040802955627 0.11035952717065811)
      ( -0.03978576883673668 0.8591402769088745 0.12043934315443039)
      ( -0.03702814131975174 0.8589807748794556 0.13073094189167023)
      ( -0.0344073511660099 0.8585492968559265 0.14051192998886108)
      ( -0.03170843794941902 0.8578189015388489 0.1505843997001648)
      ( -0.029010318219661713 0.85679692029953 0.16065402328968048)
      ( -0.02634039707481861 0.8554960489273071 0.17061810195446014)
      ( -0.0237880889326334 0.8539803624153137 0.18014349043369293)
      ( -0.020965823903679848 0.8519905805587769 0.1906764805316925)
      ( -0.018510378897190094 0.8499875664710999 0.19984011352062225)
      ( -0.015855778008699417 0.8475321531295776 0.20974743366241455)
      ( -0.013261234387755394 0.8448357582092285 0.21943022310733795)
      ( -0.010742191225290298 0.8419309258460999 0.22883139550685883)
      ( -0.008139102719724178 0.8386247754096985 0.23854635655879974)
      ( -0.0056359292939305305 0.8351457118988037 0.24788829684257507)
      ( -0.002996891038492322 0.8311496376991272 0.2577373683452606)
      ( -0.014419437386095524 0.7959325909614563 0.21510787308216095)
      ( -0.015987247228622437 0.8047851920127869 0.20925676822662354)
      ( -0.017851078882813454 0.8119374513626099 0.20230087637901306)
      ( -0.020078251138329506 0.8177770972251892 0.19398880004882812)
      ( -0.02249438874423504 0.8218365907669067 0.18497170507907867)
      ( -0.025136539712548256 0.8241573572158813 0.17511111497879028)
      ( -0.027985842898488045 0.8244801759719849 0.16447724401950836)
      ( -0.030723392963409424 0.8226945400238037 0.15426063537597656)
      ( -0.03318561241030693 0.8191574215888977 0.14507153630256653)
      ( -0.03549182415008545 0.8137951493263245 0.13646453619003296)
      ( -0.03745904937386513 0.8070237040519714 0.12912271916866302)
      ( -0.03911261260509491 0.7987301349639893 0.12295175343751907)
      ( -0.040383610874414444 0.7888718247413635 0.11820829659700394)
      ( -0.04135870561003685 0.7794108390808105 0.11456901580095291)
      ( -0.04216589778661728 0.7721969485282898 0.11155667155981064)
      ( -0.008757449686527252 0.7959325909614563 0.21398165822029114)
      ( -0.040864262729883194 0.7721732258796692 0.11120311170816422)
      ( -0.03955841436982155 0.7721445560455322 0.11085861176252365)
      ( -0.03689148277044296 0.7720710039138794 0.11018653959035873)
      ( -0.035569339990615845 0.7720270752906799 0.10986892879009247)
      ( -0.034237734973430634 0.7719780802726746 0.10955941677093506)
      ( -0.031549807637929916 0.7718641757965088 0.10896606743335724)
      ( -0.02846350520849228 0.7717092633247375 0.10833621025085449)
      ( -0.026907414197921753 0.7716215252876282 0.10803931951522827)
      ( -0.014392521232366562 0.77068692445755 0.10614722967147827)
      ( -0.013453250750899315 0.7706008553504944 0.106040358543396)
      ( -0.0125194126740098 0.7705130577087402 0.10593891888856888)
      ( -0.010822208598256111 0.770348072052002 0.10576680302619934)
      ( -0.009113040752708912 0.7701748609542847 0.10560943931341171)
      ( 0.029993465170264244 0.8047851920127869 0.20925676822662354)
      ( 0.028425656259059906 0.7959325909614563 0.21510787308216095)
      ( 0.03185729682445526 0.8119374513626099 0.20230087637901306)
      ( 0.03408452868461609 0.8177770972251892 0.19398880004882812)
      ( 0.036500606685876846 0.8218365907669067 0.18497170507907867)
      ( 0.039142757654190063 0.8241573572158813 0.17511111497879028)
      ( 0.041992124170064926 0.8244801759719849 0.16447724401950836)
      ( 0.04472960904240608 0.8226945400238037 0.15426063537597656)
      ( 0.04719182848930359 0.8191574215888977 0.14507153630256653)
      ( 0.04949810355901718 0.8137951493263245 0.13646453619003296)
      ( 0.05146532878279686 0.8070237040519714 0.12912271916866302)
      ( 0.053118832409381866 0.7987301349639893 0.12295175343751907)
      ( 0.0543898269534111 0.7888718247413635 0.11820829659700394)
      ( 0.05536498501896858 0.7794108390808105 0.11456901580095291)
      ( 0.05617211386561394 0.7721969485282898 0.11155667155981064)
      ( 0.02276366762816906 0.7959325909614563 0.21398165822029114)
      ( 0.053564634174108505 0.7721445560455322 0.11085861176252365)
      ( 0.05487047880887985 0.7721732258796692 0.11120311170816422)
      ( 0.05089770257472992 0.7720710039138794 0.11018653959035873)
      ( 0.0495755560696125 0.7720270752906799 0.10986892879009247)
      ( 0.04824395477771759 0.7719780802726746 0.10955941677093506)
      ( 0.04555602744221687 0.7718641757965088 0.10896606743335724)
      ( 0.04246978461742401 0.7717092633247375 0.10833621025085449)
      ( 0.027459530159831047 0.7706008553504944 0.106040358543396)
      ( 0.02839873917400837 0.77068692445755 0.10614722967147827)
      ( 0.026525691151618958 0.7705130577087402 0.10593891888856888)
      ( 0.023119259625673294 0.7701748609542847 0.10560943931341171)
      ( 0.024828488007187843 0.770348072052002 0.10576680302619934)
      ( 0.01700310967862606 0.769497811794281 0.10517680644989014)
      ( 0.018493222072720528 0.7696709036827087 0.10526345670223236)
      ( -0.19425000250339508 0.8569278717041016 0.21101634204387665)
      ( -0.19528809189796448 0.8569166660308838 0.2137569636106491)
      ( -0.1939837634563446 0.8569305539131165 0.21033154428005219)
      ( -0.19371600449085236 0.8569331765174866 0.2096496820449829)
      ( -0.19344793260097504 0.8569357991218567 0.20897386968135834)
      ( -0.19317449629306793 0.856938362121582 0.20829153060913086)
      ( -0.19261908531188965 0.8569434881210327 0.20692601799964905)
      ( -0.19205120205879211 0.8569484353065491 0.20555725693702698)
      ( -0.1914750337600708 0.8569532036781311 0.20419561862945557)
      ( -0.19089190661907196 0.8569578528404236 0.20284369587898254)
      ( -0.1905912458896637 0.856960117816925 0.20215654373168945)
      ( -0.19029119610786438 0.8569623231887817 0.20147742331027985)
      ( -0.18968139588832855 0.8569667339324951 0.2001165747642517)
      ( -0.18906548619270325 0.8569709658622742 0.1987674981355667)
      ( -0.18843676149845123 0.8569749593734741 0.1974155306816101)
      ( -0.18811847269535065 0.8569769263267517 0.19674047827720642)
      ( -0.187794491648674 0.8569788932800293 0.19605965912342072)
      ( -0.18714648485183716 0.8569826483726501 0.19471615552902222)
      ( -0.18648657202720642 0.8569862842559814 0.19337233901023865)
      ( -0.18615294992923737 0.8569879531860352 0.19270196557044983)
      ( -0.18581542372703552 0.8569896817207336 0.192029669880867)
      ( -0.18444207310676575 0.8569961786270142 0.1893538236618042)
      ( -0.18409039080142975 0.8569976091384888 0.18868334591388702)
      ( -0.18373779952526093 0.8569991588592529 0.18801699578762054)
      ( -0.18302570283412933 0.8570019602775574 0.18668824434280396)
      ( -0.18230365216732025 0.8570045828819275 0.18536365032196045)
      ( -0.18193523585796356 0.8570058345794678 0.18469634652137756)
      ( -0.18156805634498596 0.8570070862770081 0.18403691053390503)
      ( -0.18007177114486694 0.857011616230011 0.1814049929380417)
      ( -0.17930786311626434 0.8570135831832886 0.1800941824913025)
      ( -0.17853307723999023 0.8570154905319214 0.17878641188144684)
      ( -0.17696557939052582 0.8570186495780945 0.17620407044887543)
      ( -0.17616821825504303 0.8570200204849243 0.1749216616153717)
      ( -0.17535662651062012 0.8570212125778198 0.1736368089914322)
      ( -0.1737060546875 0.8570231199264526 0.1710851788520813)
      ( -0.16627246141433716 0.8578404188156128 0.17591263353824615)
      ( -0.15725262463092804 0.8585816025733948 0.1817701756954193)
      ( -0.14855194091796875 0.8590040802955627 0.18742047250270844)
      ( -0.1398000419139862 0.8591402769088745 0.19310398399829865)
      ( -0.13086432218551636 0.8589807748794556 0.19890692830085754)
      ( -0.12237194925546646 0.8585492968559265 0.20442195236682892)
      ( -0.11362646520137787 0.8578189015388489 0.21010132133960724)
      ( -0.10488348454236984 0.85679692029953 0.215779110789299)
      ( -0.09623205661773682 0.8554960489273071 0.22139737010002136)
      ( -0.0879616066813469 0.8539803624153137 0.22676828503608704)
      ( -0.07881628721952438 0.8519905805587769 0.23270732164382935)
      ( -0.07085992395877838 0.8499875664710999 0.23787425458431244)
      ( -0.06225781515240669 0.8475321531295776 0.2434605062007904)
      ( -0.05385071039199829 0.8448357582092285 0.24892017245292664)
      ( -0.04568805173039436 0.8419309258460999 0.2542210519313812)
      ( -0.0372529961168766 0.8386247754096985 0.2596988081932068)
      ( -0.02914178930222988 0.8351457118988037 0.26496630907058716)
      ( -0.020590275526046753 0.8311496376991272 0.2705197334289551)
      ( -0.1969788819551468 0.8569020628929138 0.2184627503156662)
      ( -0.2000705599784851 0.8569020628929138 0.2279781848192215)
      ( -0.20146843791007996 0.8569166660308838 0.23277810215950012)
      ( -0.19857269525527954 0.8568971753120422 0.22320227324962616)
      ( -0.06256353855133057 0.7959325909614563 0.25688180327415466)
      ( -0.06565368920564651 0.7959325909614563 0.2663923501968384)
      ( -0.06874389946460724 0.7959325909614563 0.2759029269218445)
      ( -0.1667247861623764 0.7692018747329712 0.22613894939422607)
      ( -0.16616474092006683 0.7693498730659485 0.2246355563402176)
      ( -0.16860626637935638 0.7689213156700134 0.23151101171970367)
      ( -0.1682194173336029 0.7689492106437683 0.23036223649978638)
      ( -0.1697508543729782 0.7689433693885803 0.23506689071655273)
      ( -0.16903264820575714 0.7689105272293091 0.2328072041273117)
      ( -0.1710820347070694 0.7692017555236816 0.23954910039901733)
      ( -0.17049914598464966 0.7690539956092834 0.23753511905670166)
      ( -0.171864315867424 0.769497811794281 0.24239706993103027)
      ( -0.20179034769535065 0.8569213151931763 0.23393982648849487)
      ( -0.20210205018520355 0.8569258451461792 0.23509007692337036)
      ( -0.202708438038826 0.8569345474243164 0.2374049872159958)
      ( -0.20301952958106995 0.8569390773773193 0.2386361062526703)
      ( -0.2033221423625946 0.8569434285163879 0.23986448347568512)
      ( -0.20361743867397308 0.8569477200508118 0.2410944551229477)
      ( -0.20390643179416656 0.8569518327713013 0.24233093857765198)
      ( -0.20420421659946442 0.8569560647010803 0.24364160001277924)
      ( -0.20449566841125488 0.8569602370262146 0.2449628859758377)
      ( -0.20477783679962158 0.8569642901420593 0.24628229439258575)
      ( -0.2050510197877884 0.8569681644439697 0.24760061502456665)
      ( -0.20560607314109802 0.8569760918617249 0.25041988492012024)
      ( -0.2061229795217514 0.8569833636283875 0.2532474994659424)
      ( -0.20625396072864532 0.8569851517677307 0.2540002763271332)
      ( -0.20638330280780792 0.8569869995117188 0.2547602653503418)
      ( -0.20663245022296906 0.8569904565811157 0.2562735974788666)
      ( -0.2068716436624527 0.8569938540458679 0.2577950358390808)
      ( -0.2070995420217514 0.856997013092041 0.2593171000480652)
      ( -0.2073294073343277 0.8570001721382141 0.26093441247940063)
      ( -0.20754864811897278 0.8570031523704529 0.2625672519207001)
      ( -0.20794768631458282 0.8570085763931274 0.26582854986190796)
      ( -0.20813751220703125 0.857011079788208 0.26754680275917053)
      ( -0.20831450819969177 0.857013463973999 0.2692809998989105)
      ( -0.20862530171871185 0.8570175170898438 0.2727462947368622)
      ( -0.2087642252445221 0.857019305229187 0.27454841136932373)
      ( -0.20888873934745789 0.8570207953453064 0.2763643264770508)
      ( -0.20909002423286438 0.8570231199264526 0.2799859046936035)
      ( -0.2002386450767517 0.8578404188156128 0.2804498076438904)